 WAVEWATCH III 20071217 000000 -180.00  179.50 720  -78.00   80.00 317 .dpt  0.1000 m          3 2 (1X,20I6)  -999
   -999  -999  -999  -999  -999  -999  -999  -999  -999  -999  -999  -999  -999  -999  -999  -999  -999  -999  -999  -999
   -999  -999  -999  -999  -999  -999  -999  -999  -999  -999  -999  -999  -999  -999  -999  -999  -999  -999  -999  -999
   -999  -999  -999  -999  -999  -999  -999  -999  -999  -999  -999  -999  -999  -999  -999  -999  -999  -999  -999  -999
   -999  -999  -999  -999  -999  -999  -999  -999  -999  -999  -999  -999  -999  -999  -999  -999  -999  -999  -999  -999
   -999  -999  -999  -999  -999  -999  -999  -999  -999  -999  -999  -999  -999  -999  -999  -999  -999  -999  -999  -999
   -999  -999  -999  -999  -999  -999  -999  -999  -999  -999  -999  -999  -999  -999  -999  -999  -999  -999  -999  -999
   -999  -999  -999  -999  -999  -999  -999  -999  -999  -999  -999  -999  -999  -999  -999  -999  -999  -999  -999  -999
   -999  -999  -999  -999  -999  -999  -999  -999  -999  -999  -999  -999  -999  -999  -999  -999  -999  -999  -999  -999
   -999  -999  -999  -999  -999  -999  -999  -999  -999  -999  -999  -999  -999  -999  -999  -999  -999  -999  -999  -999
   -999  -999  -999  -999  -999  -999  -999  -999  -999  -999  -999  -999  -999  -999  -999  -999  -999  -999  -999  -999
   -999  -999  -999  -999  -999  -999  -999  -999  -999  -999  -999  -999  -999  -999  -999  -999  -999  -999  -999  -999
   -999  -999  -999  -999  -999  -999  -999  -999  -999  -999  -999  -999  -999  -999  -999  -999  -999  -999  -999  -999
   -999  -999  -999  -999  -999  -999  -999  -999  -999  -999  -999  -999  -999  -999  -999  -999  -999  -999  -999  -999
   -999  -999  -999  -999  -999  -999  -999  -999  -999  -999  -999  -999  -999  -999  -999  -999  -999  -999  -999  -999
   -999  -999  -999  -999  -999  -999  -999  -999  -999  -999  -999  -999  -999  -999  -999  -999  -999  -999  -999  -999
   -999  -999  -999  -999  -999  -999  -999  -999  -999  -999  -999  -999  -999  -999  -999  -999  -999  -999  -999  -999
   -999  -999  -999  -999  -999  -999  -999  -999  -999  -999  -999  -999  -999  -999  -999  -999  -999  -999  -999  -999
   -999  -999  -999  -999  -999  -999  -999  -999  -999  -999  -999  -999  -999  -999  -999  -999  -999  -999  -999  -999
   -999  -999  -999  -999  -999  -999  -999  -999  -999  -999  -999  -999  -999  -999  -999  -999  -999  -999  -999  -999
   -999  -999  -999  -999  -999  -999  -999  -999  -999  -999  -999  -999  -999  -999  -999  -999  -999  -999  -999  -999
   -999  -999  -999  -999  -999  -999  -999  -999  -999  -999  -999  -999  -999  -999  -999  -999  -999  -999  -999  -999
   -999  -999  -999  -999  -999  -999  -999  -999  -999  -999  -999  -999  -999  -999  -999  -999  -999  -999  -999  -999
   -999  -999  -999  -999  -999  -999  -999  -999  -999  -999  -999  -999  -999  -999  -999  -999  -999  -999  -999  -999
   -999  -999  -999  -999  -999  -999  -999  -999  -999  -999  -999  -999  -999  -999  -999  -999  -999  -999  -999  -999
   -999  -999  -999  -999  -999  -999  -999  -999  -999  -999  -999  -999  -999  -999  -999  -999  -999  -999  -999  -999
   -999  -999  -999  -999  -999  -999  -999  -999  -999  -999  -999  -999  -999  -999  -999  -999  -999  -999  -999  -999
   -999  -999  -999  -999  -999  -999  -999  -999  -999  -999  -999  -999  -999  -999  -999  -999  -999  -999  -999  -999
   -999  -999  -999  -999  -999  -999  -999  -999  -999  -999  -999  -999  -999  -999  -999  -999  -999  -999  -999  -999
   -999  -999  -999  -999  -999  -999  -999  -999  -999  -999  -999  -999  -999  -999  -999  -999  -999  -999  -999  -999
   -999  -999  -999  -999  -999  -999  -999  -999  -999  -999  -999  -999  -999  -999  -999  -999  -999  -999  -999  -999
   -999  -999  -999  -999  -999  -999  -999  -999  -999  -999  -999  -999  -999  -999  -999  -999  -999  -999  -999  -999
   -999  -999  -999  -999  -999  -999  -999  -999  -999  -999  -999  -999  -999  -999  -999  -999  -999  -999  -999  -999
   -999  -999  -999  -999  -999  -999  -999  -999  -999  -999  -999  -999  -999  -999  -999  -999  -999  -999  -999  -999
   -999  -999  -999  -999  -999  -999  -999  -999  -999  -999  -999  -999  -999  -999  -999  -999  -999  -999  -999  -999
   -999  -999  -999  -999  -999  -999  -999  -999  -999  -999  -999  -999  -999  -999  -999  -999  -999  -999  -999  -999
   -999  -999  -999  -999  -999  -999  -999  -999  -999  -999  -999  -999  -999  -999  -999  -999  -999  -999  -999  -999
  54041 17513 17135 15816 16299 16668 16297 16730 17679 19334 20823 21088 21562 22659 24359 24970 24939 25740 27974 29360
  29981 30200 30733 30732 30502 30116 28582 27023 26313 25941 25556 25285 26893 27736 27896 30327 32018 32668 33108 33404
  33489 33581 33473 32914 32767 34521 36076 36641 36646 36348 35800 36160 36691 37178 37245 37247 37246 37250 37253 37258
  37263 37267 37252 37151 37144 37151 37198 37234 37233 37217 37192 37150 37101 37042 36963 36900 36870 36847 36657 36447
  36311 36184 36068 35983 35917 35865 35822 35782 35740 35696 35647 35590 35512 35390 35248 35127 35041 34991 34891 34594
  34244 33949 33772 33277 33197 32631 30325 29371 28322 26786 26216 26301 26626 26470 26927 28968 30324 27687 25239 23654
  22230 21141 20151 18833 17449 16513 14289 12257 10064  8127  6659  5840  5665  5497  5421  5404  5379  5386  5409  5377
   5391  5303  5126  4937  4810  4478  4108  3547  1952  1430  1856  2688  3345  3386  3250  3694  4494  4757  4547  4528
   5111  5040  4995  4576  3740  2188  1816  1687  1235  -999  -999  -999  -999  -999  -999  -999  -999  -999  -999  -999
   -999  -999  -999  -999  -999  -999  -999  -999  -999  -999  -999  -999  -999  -999  -999  -999  -999  -999  -999  -999
   -999  -999  -999  -999  -999  -999  -999  -999  -999  -999  -999  -999  -999  1641  1854  2064  2112  2021  1943  1952
   1855  1844  1725  1766  1967  2103  2362  2512  2247  2294  -999  -999  -999  -999  -999  -999  -999  -999  -999  -999
   -999  -999  -999  -999  -999  -999  -999  -999  -999  -999  -999  -999  -999  -999  -999  -999  -999  -999  -999  -999
   -999  -999  -999  -999  -999  -999  -999  -999  -999  -999  -999  -999  -999  -999  -999  -999  -999  -999  -999  -999
   -999  -999  -999  -999  -999  -999  -999  -999  -999  -999  -999  -999  -999  -999  -999  -999  -999  -999  -999  -999
   -999  -999  -999  -999  -999  -999  -999  -999  -999  -999  -999  -999  -999  -999  -999  -999  -999  -999  -999  -999
   -999    77   510  1008  1333  1848  2018  1977  1687  1146   711   478   810  1453  1701  1481  2145  2572  2395  2039
   1914  1930  1909  1916  1997  2273  2873  3273  4186  5894  9323 13947 17143 19823 21884 23842 25081 26175 26806 27584
  27957 28988 29450 27771 25807 30303 32871 34528 33880 27447 24233 20695 16438 13326 10940  8980  6166  3429  2467  2019
   1314   668   306  -999  -999  -999  -999  -999  -999  -999  -999   396  -999  -999  -999  -999  -999  -999   502   426
    430   486   368  -999  -999  -999  -999  -999  -999  -999  -999  -999   903  1283  1716  2011  2197  2574  2719  2632
   2392  1912  1909  2140  2411  2602  2720  2803  2805  2865  2868  2828  2858  2804  2831  2897  2885  2919  2979  2957
   2884  2765  2840  3006  3153  3205  3074  2827  2377  1670  1397  1443  1554  1922  2299  2485  2681  2979  2949  2754
   2781  2740  2760  3013  3214  3216  2813  2579  2579  2479  2286  2129  2192  2180  2061  2020  2209  2088  2384  2506
   2072  1886  1766  1667  1543  1651  1812  1996  2149  2496  3062  3786  4348  4721  4857  4939  5066  5202  5245  5128
   5185  5258  5318  5216  4959  4696  4323  3788  3412  2569  1533  1162   935   846   948  1035  1200  1171  1079   505
    355   422   459   492   549   603  1040  1752  1992  1895  1747  1889  2031  2085  2153  1978  1739  1592  1470  1323
   1175   908   633   613   522   464   339   359  -999  -999  -999  -999  -999  -999  -999  -999  -999  -999  -999  -999
    234  1572  2156  1695  1685  1848  1528  1542  1709  1991  2323  2696  3043  3477  4042  4881  6355  8588 12215 15462
  17818 20998 23534 24982 26256 27173 28145 28944 29484 29672 29522 29533 29452 29662 29895 30043 30290 30556 30807 31154
  31382 31538 31664 31751 31849 31913 31903 32171 32950 33621 32490 31682 31816 32228 32343 32352 32461 32558 32450 32387
  32491 32324 32117 32050 32130 32156 31899 31667 31328 30864 30350 29953 29706 29142 28145 26645 23989 20121 18795 17739
  12618  9845  9888  8629  8644  6757  4231  2602  1961  2002  2326  2424  2444  2602  2612  2513  2254  1900  1596  1339
   1152  1060  1036  1050  1148  1236  1347  1531  1808  2400  2866  2670  3167  3658  3816  4315  4487  5211  6668  7579
   9132 10714 11914 13826 15868 17177 18440 19539 20345 21032 21863 22815 23211 23546 24023 24543 24854 25151 25519 25845
  26067 26126 26091 26043 25996 25956 25961 25879 25390 24339 23140 21753 20769 19430 18324 16473 15915 17118 17514 16727
  51417 14223 13947 13597 14445 15517 15682 15066 14233 15198 17564 19252 19871 19881 18808 20721 22295 23214 25577 26675
  28046 28499 27748 27410 26103 24855 22531 20163 17619 16136 17521 16459 14195 12772 13059 13921 15222 16373 17152 17400
  18938 23124 27680 30540 31788 33623 36462 37209 37238 37280 36379 30418 32857 36258 37220 37237 37246 37247 37245 37244
  37245 37244 37237 37222 37222 37215 37211 37200 37188 37172 37153 37137 37078 36944 36914 36940 36934 36879 36721 36499
  36291 36088 35949 35876 35812 35750 35689 35626 35564 35511 35432 35300 35131 34960 34948 34806 34541 34416 34309 34165
  33978 33623 33075 32661 32156 31587 31248 30960 30654 29995 29163 27935 26688 25622 25399 24975 24039 23278 22240 21018
  19534 17954 15371 12718 10411  8214  6770  5286  4531  4327  4578  4381  3895  3395  3020  2931  3322  3720  3502  4120
   4466  4718  4542  4315  4242  4366  4582  4441  3427  2432  -999  -999  -999  -999  -999   967  -999  -999  1825  2056
   2588  3085  3573  3011  3624  3723  3494  3469  3522  3423  3297  3215  2289  -999  -999  -999  -999  -999  -999  -999
   -999  -999  -999  -999  -999  -999  -999  -999  -999  -999  -999  -999  -999  -999  -999  -999  -999  -999  -999  -999
   -999  -999  -999  -999  -999  -999  -999  -999  -999  -999  -999  2180  2230  2728  3123  2835  2647  2633  2465  2542
   2505  2063  -999  -999  -999  -999  -999  -999  -999  -999  -999  -999  -999  -999  -999  -999  -999  -999  -999  -999
   -999  -999  -999  -999  -999  -999  -999  -999  -999  -999  -999  -999  -999  -999  -999  -999  -999  -999  -999  -999
   -999  -999  -999  -999  -999  -999  -999  -999  -999  -999  -999  -999  -999  -999  -999  -999  -999  -999  -999  -999
   -999  -999  -999  -999  -999  -999  -999  -999  -999  -999  -999  -999  -999  -999  -999  -999  -999  -999  -999  -999
   -999  -999  -999  -999  -999  -999  -999  -999  -999  -999  -999  -999  -999  -999  -999  -999  -999  -999  -999  -999
   -999  -999   181   569   474  1279  2378  2453  1393   649   563   496   635   956  1278  1415  1954  2583  2653  2825
   2654  2492  2205  1839  1966  1988  2176  2831  3960  6098  9398 14643 19579 21742 23466 25450 25371 24626 25243 25670
  25955 25846 25683 26063 28344 32745 35648 31953 24862 23135 21571 20327 18492 16172 13494 11860  9722  5298  2087  1507
   1138  1077  1168  1137  -999  -999  -999  -999  -999  -999  -999  -999  -999  -999  -999  -999  -999  -999  -999  -999
   -999  -999   477   411   573   741   916  1187  1327  1528  1657  1642  1615  1547  1396  1351  1098   895  1136  1268
   1169  1237  1519  1650  1644  1866  2335  2333  2580  2678  2686  2596  2600  2591  2310  2469  2299  2130  1943  1874
   1892  2076  2144  2660  3615  3254  2843  2582  2090  2010  2381  1957  1511  1624  1881  2219  2713  3104  3315  3343
   3305  3208  3210  2939  2844  2693  2539  2270  2321  2350  2191  2059  2021  1931  1951  1934  1921  1963  1986  1909
   1914  1936  1989  2116  2175  2204  2354  2453  2535  2810  3154  3486  3696  3918  4064  4151  4239  4349  4466  4544
   4612  4692  4892  4801  4715  4586  4381  4127  3776  3292  2782  2509  2168  1865  1638  1475  1291  1138  1038   621
    517   539   507   438   582   802  1041  1354  1697  1615  1160   878   993  1504  2019  2291  2598  2264  1612  1166
   1080  1030   993   963   931   848   796   775   629   464   524   483  -999  -999  -999  -999  -999  -999  -999  -999
   1320  2056  1658  -999  -999  -999  -999  -999  -999   630   794  1063  1569  2145  2550  2565  2716  3136  3932  5055
   6384  8517 10852 13361 15714 18088 19969 21050 21873 22198 22388 22788 23271 24010 24752 25309 25962 26823 27471 27979
  28496 28986 29415 29854 30223 30364 30288 30070 29978 30609 30918 30034 29197 29476 30012 29711 29453 29165 29063 28962
  29117 28941 28447 28822 29521 29293 28745 27012 25417 23782 24790 23880 22350 20041 16954 16064 12331  7530  3303  1924
   1488  1215  1169  1182  1302  1351  1223  1080   957   892   878   884   890   897   906   914   923   925   917   904
    855   817   805   807   819   856   932   960   987  1034  1086  1160  1252  1336  1424  1510  1608  1768  1976  2195
   2387  2605  2860  3252  4098  5250  7074  8989 10688 12381 13357 14534 15818 16977 18343 19555 20712 21976 22964 23545
  24049 24399 24534 24706 24824 24811 24655 24448 23936 23279 22496 21686 20630 19562 18629 18270 17788 16547 15318 14784
  53356 15940 15272 15048 13804 12320 10878 12197 13575 15467 16186 17149 18105 19567 21116 21916 22575 23593 24570 25694
  24314 21598 18809 15145 11456  8083  6198  5627  5601  6021  6476  6456  6430  6347  6463  6998  9044 13238 13174 10658
  16119 22642 27702 31753 31325 28558 26987 26722 27487 26895 21917 17295 17260 24171 31864 36100 37238 37243 37255 37256
  37249 37250 37256 37218 37170 37193 37200 37193 37190 37192 37197 37188 37022 36929 36972 36978 36919 36856 36737 36533
  36355 36187 36043 35942 35853 35759 35661 35572 35516 35510 35452 35344 35147 34961 34769 34531 34310 34113 33921 33346
  32570 31906 31091 30405 29542 28789 27943 26934 25728 24859 23648 21774 20115 19052 16936 14550 11916  9524  8411  7631
   6195  5044  4219  3889  4192  3842  3672  3530  3028  2617  2920  2744  1686  1425   715   396   762  -999  -999  -999
   -999  2132  2793  3498  3744  3976  4025  4316  4712  4501  2814  2680  1541  -999  -999  -999  -999  -999  -999  -999
   -999  1197  3284  2508  -999  -999  -999  -999  -999  1827  1522  2450  3592  3874  3325  -999  -999  -999  -999  -999
   -999  -999  -999  -999  1763  2104  -999  -999  -999  -999  -999  -999  -999  -999  -999  -999  -999  -999  -999  -999
   -999  -999  -999  -999  -999  -999  -999  -999  -999  -999  2914  3836  4301  4563  3509  3221  -999  -999  -999  -999
   -999  -999  -999  -999  -999  -999  -999  -999  -999  -999  -999  -999  -999  -999  -999  -999  -999  -999  -999  -999
   -999  -999  -999  -999  -999  -999  -999  -999  -999  -999  -999  -999  -999  -999  -999  -999  -999  -999  -999  -999
   -999  -999  -999  -999  -999  -999  -999  -999  -999  -999  -999  -999  -999  -999  -999  -999  -999  -999  -999  -999
   -999  -999  -999  -999  -999  -999  -999  -999  -999  -999  -999  -999  -999  -999  -999  -999  -999  -999  -999  -999
   -999  -999  -999  -999  -999  -999  -999  -999  -999  -999  -999  -999  -999  -999  -999  -999  -999  -999   324   283
    163   252   320   473  1034  1934  2894  3310  2492  1388   736   977  1425  1484  1749  1905  1912  1913  1971  2213
   2291  2366  2523  2373  2156  1992  2295  2743  3150  3477  4189  8119 15844 20841 24915 26825 27378 27913 28339 27730
  26319 23976 21349 20462 23253 24790 25084 23572 22988 23031 21879 19894 19651 21528 25232 22234 18050 12791  8373  4156
   1871  1324  1411   691   984  -999  -999  -999  -999  -999  -999  -999  -999  -999  -999  -999  -999  -999  -999  -999
    364   220  -999  -999   322   356   476   545   900  1227  1462  1573  1554  1776  1662  1666  1933  2054  2275  2495
   2547  2578  2503  2569  2486  2451  2314  2076  1970  1970  2017  1614  1309  1508  1358  1430  1540  1489  1770  2220
   2474  2656  2640  2544  2427  2272  2324  2280  2216  2351  2535  2716  2589  2469  2496  2662  2768  2676  2509  2508
   2558  2596  2641  2446  2372  2430  2614  2810  2766  2490  2247  2192  2041  1842  1798  1712  1671  1795  2014  2169
   2248  2410  2673  2873  3049  3153  3232  3261  3243  3293  3317  3285  3319  3385  3521  3721  3845  3952  4003  4073
   4195  4278  4353  4524  4595  4479  4277  4004  3756  3404  2993  2731  2435  2027  1666  1473  1259  1044   939   816
    603   521   436   340   318   438   723   948   718   645   701   740   820  1327  1429  1396  1533  1473   971   777
    799   588   540   491   456   416   397   441   476   507   688   743   792   948  1209  1079   812   774   904  1127
   1323  -999  -999  -999  -999  -999  -999  -999  -999  -999  -999   927  1358  1045   824   772   735   908  1103  1052
    998  1105  1549  2430  3101  3724  4513  5388  7125  9255 11350 13603 15800 17500 19171 20474 21283 22011 22773 23591
  24445 25149 25764 26346 26994 27240 27105 26841 26323 25843 26073 26446 26190 26415 27170 26821 26328 26256 25647 24395
  24187 23198 21008 18970 18140 16752 15424 12951 12114  9342  8774  7928  5538  4494  2588  1895  1760  1280   966   805
    749   711   688   687   698   703   700   694   691   693   693   688   678   672   672   674   673   674   676   677
    680   687   697   714   738   765   795   825   851   878   903   923   941   960   983  1022  1071  1129  1205  1305
   1427  1566  1710  1851  1974  2102  2456  3164  3933  4516  5010  5649  6527  7267  8474  9813 10625 11156 12026 12855
  13697 14351 14999 15833 16928 18057 18971 19792 20298 20197 19736 19294 19009 18753 18431 18112 17912 17659 16996 16315
  52187 15559 15434 14697 14044 12640 11488 12630 14642 15377 16701 18058 18689 19579 21049 21752 21604 22229 23240 22778
  20298 14561  8269  5031  4069  3539  3378  3841  4248  4339  4438  3681  3264  3273  4328 10423 21848 20981 11124 14876
  21850 22671 21574 17359 14643 13122 15387 15665 15422 15612 13095 10797 13721 18187 23771 31939 35942 37276 37257 37264
  37255 37248 37235 37245 37164 37205 37198 37160 37133 37107 37007 36887 36901 36941 36953 36887 36807 36744 36668 36555
  36447 36329 36208 36089 35970 35832 35700 35534 35442 35325 35162 34975 34817 34662 34489 34305 34125 33900 33243 32418
  31557 30815 29868 28996 28554 27639 25761 24448 21846 18544 15184 12804 10362  7436  5325  4137  3544  3136  2843  2640
   2812  3199  3112  2753  2422  2543  2531  2288  1392   791   444   977  1708  1104  1099  1512  -999  -999  -999  -999
   1099  1934  3220  3697  4036  4078  3537  2975  3022  3508  4059  4122  3496  3040  3096  2291  2088  2112  1222  -999
   -999  -999  1317  3136  1905   643  -999  -999  -999  -999   511   844  1967  3298  3301  3845  4119  3900  3815  3392
   2463  2402  2278  2214  3006  -999  -999  -999  -999  -999  -999  -999  -999  -999  -999  -999  -999  -999  -999  -999
   -999  -999  -999  -999  -999  -999  -999  -999  3415  4681  6321  6583  5418  3091  1507   731  -999  -999  -999  -999
   -999  -999  -999  -999  -999  -999  -999  -999  -999  -999  -999  -999  -999  -999  -999  -999  -999  -999  -999  -999
   -999  -999  -999  -999  -999  -999  -999  -999  -999  -999  -999  -999  -999  -999  -999  -999  -999  -999  -999  -999
   -999  -999  -999  -999  -999  -999  -999  -999  -999  -999  -999  -999  -999  -999  -999  -999  -999  -999  -999  -999
   -999  -999  -999  -999  -999  -999  -999  -999  -999  -999  -999  -999  -999  -999  -999  -999  -999  -999  -999  -999
   -999  -999  -999  -999  -999  -999  -999  -999  -999  -999  -999  -999  -999  -999  -999  -999  -999   400    98  -999
     65    46   143   795  1225  1860  2755  3841  4166  3289  3330  3356  3235  3124  2888  2679  2115  1875  2037  2055
   2110  2221  2162  2264  2305  2557  2476  2301  2547  3255  8119 17696 23577 25733 27193 28418 29290 29562 30008 30403
  30475 30556 30502 29176 29251 29988 29597 28460 26718 25813 24785 24210 22014 19758 26064 32376 25860 17643 12464  6659
   3352  2224  1999  1765  1480  1634  1437  1374  -999  -999  -999  -999  -999  -999  -999  -999  -999  -999   815   739
    690   527   286  -999  -999  -999  -999   172   311   535   881  1282  1656  1795  1920  2139  2371  2583  2811  2897
   2773  2532  2300  1981  1734  1558  1554  1664  1807  1846  1608  1414  1407  1409  1615  1821  1840  1984  2261  2240
   2210  2372  2235  2307  2328  2329  2448  2700  3004  3246  3062  2731  2559  2615  2697  2890  3078  3114  2959  2548
   2251  2203  2272  2309  2340  2378  2478  2467  2282  2455  2342  2367  2226  2090  2018  2138  2096  2353  2739  3071
   3190  3253  3304  3322  3400  3318  3221  3197  3189  3093  3085  3263  3381  3459  3571  3809  4184  4296  4210  4008
   3857  3754  3671  3578  3515  3507  3575  3530  3455  3386  3231  3023  2737  2478  2124  1787  1536  1296  1152  1077
   1008   963   952   964  1021  1078  1188  1134   830   795   762   909  1030  1112   869  1026   835   758   779   692
    526   431   373   347   344   367   434   454   563   715   725   756   758   796  1019  1037  1310  1556  1210   597
   -999   862  1035  1036  1076  1211  1409  1548  1654  1699  1762  1867  1631  1346  1417  1478  1308  1493  1719  1899
   2098  2326  2670  2898  2892  2736  2806  2602  2299  2319  2661  3567  5182  7720 10808 13348 15474 16453 17151 17803
  17997 18227 18436 19207 20320 21346 21893 21597 21023 21009 21226 21532 21628 21287 20327 19580 20481 21615 18963 13919
   9850  9096  7369  4435  2004  1299  1062   837   874   853   857   752   698   652   622   600   583   573   569   563
    553   542   533   527   525   523   521   521   519   515   502   488   488   500   513   523   529   540   547   555
    573   599   622   643   666   688   708   726   742   760   783   807   832   857   881   902   921   940   963   986
   1059  1182  1339  1555  1756  1920  2100  2269  2403  2542  2684  2776  2830  2879  2955  3095  3322  3594  3826  4053
   5284  6651  8059  9369 10247 11086 11683 12364 13532 14844 15468 15876 16063 15924 15928 16224 16632 16605 16389 15853
  52504 15098 15139 15071 13452 11036 11342 12507 14083 15802 18117 19744 20106 20543 21103 22043 22227 22057 22096 21904
  20960 18179 13511  7376  5131  4780  5294  6199  6154  6384  3636  2993  2921  3522  8501 20380 23956 14751 10645 12762
  11651 13073 15001 13713 14651 17254 14419 14652 13282 12593 12302 12278 14873 20830 28707 35582 36682 37334 37274 37275
  37255 37237 37230 37211 37194 37167 37121 37067 37004 36904 36798 36872 36898 36906 36854 36778 36706 36645 36557 36508
  36519 36528 36514 36353 35904 35673 35528 35323 35098 34954 34824 34661 34477 34286 34115 34016 33918 33479 32808 32201
  31702 30586 29576 27981 25981 23617 20878 17945 14584 10373  7490  6039  4853  3837  3219  2832  2695  2434  2366  2230
   1893  1324  1471  1953  1894  1297   741  -999   479   487   867  1239  2028  1943  1834  -999  -999  -999  -999  -999
   2267  3373  4131  4588  4509  4032  3813  2781  1156  -999  -999  1708  2739  3226  3054  2570  2358  2295  2307  2258
   2365  2220  2234  2053  1696  1550  1773  1426   881  -999  -999  -999  -999   796  1013  3141  4314  2098  -999  -999
   -999  2303  3216  1955  1419  -999  -999  -999  -999  -999  -999  -999  -999  -999  -999  -999  -999  -999  -999  -999
   -999  -999  -999  -999  2718  2075  2570  3499  5405  6185  6543  6188  4057  2764  2104  1638  1864  2245  2666  2809
   3145  4746  -999  -999  -999  -999  -999  -999  -999  -999  -999  -999  -999  -999  -999  -999  -999  -999  -999  -999
   -999  -999  -999  -999  -999  -999  -999  -999  -999  -999  -999  -999  -999  -999  -999  -999  -999  -999  -999  -999
   -999  -999  -999  -999  -999  -999  -999  -999  -999  -999  -999  -999  -999  -999  -999  -999  -999  -999  -999  -999
   -999  -999  -999  -999  -999  -999  -999  -999  -999  -999  -999  -999  -999  -999  -999  -999  -999  -999  -999  -999
   -999  -999  -999  -999  -999  -999  -999  -999  -999  -999  -999  -999  -999  -999  -999  -999  -999  -999  -999  -999
   -999  -999   712   831  1022  1436  1499  1839  2819  3122  3239  3182  3071  3026  3026  2981  2378  2104  2699  3189
   2907  2717  2254  2172  2681  2768  2354  2061  2201  4878 10539 16410 21515 26937 29311 30295 30522 30616 31064 31446
  31289 31582 31305 31268 30410 31194 30001 28243 27691 26271 25537 25051 24012 19470 23371 31322 25152 20090 19527 17519
  14772 11092  6786  2885  1561  1453  1605  1118   819  -999  -999  -999  -999  -999  -999  -999  -999   772  1390  1280
   1126   715   337  -999   240   177  -999  -999   533   544   873  1208  1480  1611  1611  1612  1685  1790  1837  1918
   2019  2023  1971  1782  1636  1533  1511  1527  1685  1746  1810  1702  1691  1691  1827  2024  2168  2149  2135  2130
   2044  2016  2114  2362  2486  2463  2439  2610  2866  2846  2563  2512  2529  2568  2529  2425  2397  2715  3291  3276
   3221  3156  3113  3133  3201  3138  3127  3266  3228  2926  2513  2386  2189  1919  1950  1627  1616  2110  2481  3028
   2915  3016  2902  2710  2559  2207  1977  1709  1747  2004  2240  2314  2222  2391  2737  3233  4120  4645  4451  4064
   3616  3027  2690  2589  2643  2633  2520  2480  2483  2521  2476  2459  2486  2537  2389  2059  1704  1184   859   678
    555   478   388   316   272   321   516   549   488   440   547   711   833   806   777   624   509   387   263   260
    255   231   251   270   315   502   558   676   705   563   550   479   619   846  1011  1013   963   980  1017   984
    934   991   971   717   784   781  -999  -999  -999  -999  -999  -999   592   474   602   756   933  1118  1254  1194
   1259  1258  1179  1048   790   661   640   643   653   660   718   943  1278  1513  2064  3098  4697  5842  6548  6661
   6513  6746  7402  8684  9966 11499 12917 12973 12602 13621 14144 14852 14803 13990 11657  7046  5688  5912  4628  1917
    829   782   748   714   682   654   622   590   561   540   528   518   499   478   461   446   430   417   408   397
    388   381   372   362   357   353   352   355   359   363   368   372   380   390   401   412   425   438   451   459
    466   473   484   499   544   599   624   637   646   653   663   675   681   694   721   760   801   827   857   883
    909   938   973  1035  1135  1284  1435  1576  1703  1807  1916  2039  2192  2368  2559  2766  2988  3218  3433  3602
   4016  4901  5829  6879  7860  8826  9600 10282 10962 11760 12026 12033 12104 11864 11416 11254 12008 13140 14174 14851
  49529 12766 12729 12119 12211 13607 13958 14398 16339 18195 19487 20107 20756 21483 21905 21705 21672 21828 21946 21922
  21688 21289 19681 15570 10954  7074  6059  6554  7878  8849  6898  4308  5531  9710 16183 18297 10090  6683 15354 18760
  18954 19389 18607 14868 13925 14930  7840 16273 17108 11906 10362 12866 25387 35130 37236 37289 37292 37310 37307 37296
  37263 37251 37233 37208 37193 37191 37149 37082 36998 36973 37040 36955 36847 36772 36665 36557 36440 36425 36488 36572
  36660 36759 36858 36834 36587 36283 36043 35825 35546 35143 34815 34458 34195 34024 33635 32861 32131 31858 30887 30097
  29149 28465 27954 26396 23465 20640 16909 11587  7744  5655  4644  3854  3329  2909  2519  2284  1843  1524  1071   865
   -999  -999  -999  -999  -999  -999  -999  -999  -999  1453  1880  1736  2077  1507  2611  3901  4078  4073  4072  3711
   3595  3279  3484  3843  4287  3740  2718  2417  1771  1345  1474  1362  1571  2202  3247  3416  3183  2772  2714  2691
   2802  2661  2699  2526  1939  1453  1007  1569  -999  -999  -999  1269   891   795  1286  2887  2957  1777  1218   593
    593  1609  2518  -999  -999  -999  -999  -999  -999  -999  -999  -999  -999  -999  -999  -999  -999  -999  -999  -999
   -999  -999   996  1916  2645  2502  3078  2489  3429  4745  5208  5817  4983  3380  2567  3672  7863  7056  2779  -999
   -999  -999  -999  -999  -999  -999  -999  -999  -999  -999  -999  -999  -999  -999  -999  -999  -999  -999  -999  -999
   -999  -999  -999  -999  -999  -999  -999  -999  -999  -999  -999  -999  -999  -999  -999  -999  -999  -999  -999  -999
   -999  -999  -999  -999  -999  -999  -999  -999  -999  -999  -999  -999  -999  -999  -999  -999  -999  -999  -999  -999
   -999  -999  -999  -999  -999  -999  -999  -999  -999  -999  -999  -999  -999  -999  -999  -999  -999  -999  -999  -999
   -999  -999  -999  -999  -999  -999  -999  -999  -999  -999  -999  -999  -999  -999  -999  -999  -999  -999  -999  -999
   -999  -999  -999  -999  1123  1929  1976  1730  1928  2182  2215  2315  2303  2341  2338  2571  2798  3007  3718  4144
   3922  3496  2958  2431  2597  2043  2465  4124  6856 11422 14027 16307 18716 20359 25005 28185 30434 31187 31474 31928
  31952 31774 31790 32025 31867 31777 30805 30065 28909 27459 26664 24853 21219 20878 26233 31789 24683 21897 21699 21547
  20146 17434 14449 10766  7605  5482  3195  1759   914   783  1195  -999  -999  -999  -999   764  1283   918  1087  1348
   1189   913   426   319   329   664   901   978   757   508   549   611   783  1043  1260  1428  1451  1786  2150  2251
   2201  2200  2206  2161  2075  1829  1665  1431  1438  1419  1382  1438  1514  1605  1652  1688  1826  1847  1913  1958
   1945  1949  1999  2123  2196  2209  2140  2285  2470  2656  2652  2523  2451  2186  2221  2319  2420  2419  2704  2939
   3160  3266  3278  3329  3352  3276  3247  3030  2624  2209  1908  1777  1544  1596  1568  1460  1690  1812  1930  2163
   2103  1908  1858  1800  1632  1444  1514  1543  1698  1534  1381  1460  1508  1624  1739  -999  -999  2664  2498  3652
   4548  4406  3701  3022  2358  2031  1876  1724  1658  1719  1682  1508  1339  1215  1161  1051   994   945   801   706
    655   610   522   470   460   483   471   440   452   453   459   486   525   483   469   538   444   225   104   124
    168   265   382   345   411   402   479   528   580   622   490   440   436   393   556   581   733   730   666   552
    413   195   207  -999  -999  -999  -999  -999  -999  -999  -999  -999  -999  -999   159   173   219   258   308   324
    296   290   264   259   323   379   408   463   522   554   563   550   512   484   485   533   604   713   784   815
    812   810   823   842   872  1013  1431  1668  1713  2105  1697  2134  1735  1391  1236   840   742   727   701   671
    645   621   599   556   498   441   406   384   357   345   343   332   310   290   275   267   255   231   216   214
    213   221   219   220   241   266   288   316   342   346   345   342   336   328   343   359   377   406   432   415
    433   436   444   451   460   472   484   496   509   524   529   462   321   257   265   312   402   551   671   751
    806   846   885   920   933   962  1025  1097  1217  1366  1527  1697  1870  2033  2175  2318  2469  2625  2784  2950
   3127  3315  3505  3720  4058  4648  5518  6868  8357  9430 10523 11200 11615 11902 11956 11544 10866 10689 10840 11309
  49175 10810  9747  8441  8528 10853 15027 16814 18656 20089 20869 21305 21715 21947 21987 21915 21692 21641 21815 21728
  21471 21380 20224 18479 15138  9126  5370  5545  8466  9186  6659  6118  6759  7853 13255 17337 16631 13331 18925 19491
  20008 18898 14137  8561 11704 11992  8470 10070  9819 11095 18464 29999 36873 37396 37293 37285 37290 37340 37431 37358
  37317 37748 37925 37686 37899 38002 37789 37388 37091 37095 36982 36865 36784 36637 36476 36411 36379 36649 36870 36886
  36791 36680 36583 36418 36236 36184 36113 36022 35711 35076 34502 33960 32944 32213 31611 30866 29876 29022 27634 25718
  24013 22345 20736 18442 16133 13950 10275  6860  4631  3170  2855  2550  2078  1622  1066   882   421   110  -999  -999
   -999  -999  -999   838  1176  -999  -999  1095  1263  2054  -999  -999  1306  2113  2714  2854  2995  3017  2555  1259
    983  -999  -999  -999  2079  3523  3082  2161  2012  1844  1083   349  -999  -999  1458   879   557   380   265  -999
   -999  -999  -999  -999  -999  1284  1600  1857  1167  -999  -999  -999  -999  -999  -999  -999  -999  -999  -999  -999
   -999  -999  -999  1227  -999  -999  -999  -999  -999  -999  -999  -999  -999  -999  -999  -999  -999  -999  -999  -999
   -999  -999  -999  1166  1922  2698  2377  1436  2076  3406  4543  4998  5427  5373  4631  3995  4999  5742  4576  2042
   1227  1139  -999  -999  -999  -999  -999  -999  -999  -999  -999  -999  -999  -999  -999  -999  -999  -999  -999  -999
   -999  -999  -999  -999  -999  -999  -999  -999  -999  -999  -999  -999  -999  -999  -999  -999  -999  -999  -999  -999
   -999  -999  -999  -999  -999  -999  -999  -999  -999  -999  -999  -999  -999  -999  -999  -999  -999  -999  -999  -999
   -999  -999  -999  -999  -999  -999  -999  -999  -999  -999  -999  -999  -999  -999  -999  -999  -999  -999  -999  -999
   -999  -999  -999  -999  -999  -999  -999  -999  -999  -999  -999  -999  -999  -999  -999  -999  -999   125    45   410
   1068  1614  1083   747  1344  2117  2863  2835  2515  2445  2464  2388  2244  2119  2052  2213  2422  2848  3083  2998
   2777  2731  2719  3244  4086  6479  9492 16391 19458 22058 23456 25734 29372 32324 33750 33478 30929 27150 27620 29728
  30403 30043 31950 32057 31933 31788 31377 29371 29856 28952 27192 25364 24520 23381 28074 26835 20778 20354 21886 22149
  21808 21374 20622 19371 17726 15186 12712  9469  6237  3771  2195  1390   785   695   991  1652  2168  1874  1738  1995
   1974  1840  1606  1777  1751  1594  1262   887   555   435   387   524   769  1033  1103  1286  1394  1568  1977  2522
   2718  2775  2823  2914  2705  2559  2362  2161  2161  2241  2375  2406  2379  2346  2301  2267  2257  2156  2127  2116
   2078  2137  2210  2267  2336  2392  2406  2357  2325  2451  2720  2666  2533  2211  1914  1841  1930  2237  2308  2496
   2722  2881  3022  3188  3047  2538  1987  1673  1491  1289  1149  1028   984   998   981  1021  1283  1483  1660  1651
   1350  1106   937  1097  1172  1404  1503  1359   945   745   528   679  -999  -999  -999  -999  -999  -999   690  1444
   1559  1829  1927  1718  1668  1525  1248   942   921  1207  1296  1231  1215  1034   915   782   768   828   688   565
    530   590   598   580   535   498   447   409   486   424   369   391   413   359   331   420   374   345   351   424
    395   386   399   379   311   356   433   424   374   277   260   264   307   314   402   378   279   201   146   212
    232  -999  -999  -999  -999  -999  -999  -999  -999  -999  -999  -999  -999  -999  -999  -999  -999  -999  -999  -999
   -999  -999  -999  -999  -999    90   102   172   292   417   468   468   499   495   477   444   434   481   550   585
    602   629   670   725   799   783   779   791   787   766   679   596   557   563   549   533   522   535   561   579
    568   540   514   486   468   442   388   344   299   275   257   247   230   219   217   218   216   199   185   170
    149   128   139   161   193   222   247   275   321   347   349   356   364   364   356   355   364   360   342   380
    397   388   389   391   395   392   398   405   408   416   437   462   474   483   495   495   480   497   554   597
    639   690   731   743   739   740   751   783   837   896  1028  1177  1354  1622  1890  2018  2085  2136  2224  2331
   2441  2560  2696  2852  3027  3218  3423  3668  4147  4837  5609  6493  7740  9180 10265 11045 11274 11244 11225 11255
  48759 10800 10563 10379 10351 11216 14644 17999 19194 20082 20878 20969 20872 20489 20089 19643 18219 18891 17148 14347
  12197  9897  8672  6834  4325  2983  2742  3125  3978  5210  5338  5739  9240 15673 20064 18153 18069 20043 20012 19904
  18752 15165  7523  5982  5953  6841  8464 10288 17732 27452 35858 37399 37624 38059 38090 38035 37946 38013 38170 38051
  37969 38058 37947 37408 37473 37602 37320 37096 37158 37168 37084 36831 36755 36713 36694 36815 36768 36720 36982 37043
  36966 36829 36660 36474 36297 36100 35956 35736 35305 34949 34797 34730 34626 33720 31725 29692 28005 26835 25265 22427
  19791 17057 14092 10517  7265  5385  4425  3658  3473  3346  3205  3161  2842  2299  1494  1316  -999  -999   151  -999
   -999  1543  1957  2200  1619   822  1356  -999  -999  -999  -999  -999  -999  -999  -999  -999  1905  1887  2258  2208
   1334  -999  -999  -999  -999  1664  1850  -999  -999  1458  1711  1269   928  -999  -999  -999  -999  -999  -999  -999
   -999  -999  -999  -999  -999   359   876  1359   916   766   550   540  1515  1973  1177  -999  -999  -999  -999  -999
   -999   485   616   821  1410  2290  3607  4626  4921  5386  5369  4584  5080  5516  5959  6790  6534  5286  4317  4638
   3495  1812  1290  1296  1798  2730  2570  2607  3203  3466  3613  3824  4003  3965  3960  4028  4286  4775  5171  5696
   4968  3652  2791  2319  2045  -999  1776  3526  3956  5244  4208  4627  4354  3332  2767  3712  2590  1248   726   854
   -999  -999  -999  -999  -999  -999  -999  -999  -999  -999  -999  -999  -999  -999  -999  -999  -999  -999  -999  -999
   -999  -999  -999  -999  -999  -999  -999  -999  -999  -999  -999  -999  -999  -999  -999  -999  -999  -999  -999  -999
   -999  -999  -999  -999  -999  -999  -999  -999  -999  -999  -999  -999  -999  -999  -999  -999  -999  -999  -999  -999
   -999  -999  -999  -999  -999  -999  -999  -999  -999  -999  -999  -999  -999  -999  -999  -999  -999  -999  -999  -999
   -999  1902  2535  1585  1595  2497  1811  1145  1500  2093  2402  2644  2834  2670  2628  2745  2914  2820  3115  3784
   5595  6751  9797 13814 16845 19969 23451 27281 28832 29619 30907 32555 34529 35487 36185 36945 36765 35274 30589 25380
  24684 28129 29628 30108 30527 31108 30606 29238 28245 26588 24618 25103 23229 22459 28575 25585 21928 22330 23259 23018
  22735 22255 21339 20526 18922 16759 14146 11206  7363  3893  3473  3500  3403  3066  2824  2711  2144  1593  1420  1234
   1114  1048   960   755   657   613   570   620   723   827   935  1023  1268  1559  1935  2221  1918  1875  2390  2743
   3019  3203  3188  3152  3130  3036  2897  2700  2560  2522  2363  2260  2209  2147  2226  2216  2263  2364  2482  2592
   2711  2780  2822  2808  2949  3139  3173  3022  2737  2554  2356  2547  2656  2518  2383  2264  2155  2113  2112  2240
   2512  2632  2573  2304  1869  1416  1284  1245  1204  1119   999  1029   945   977   997   984   893   697   593   523
   -999  -999  -999  -999  -999  -999  -999  -999  -999  -999  -999  -999  -999  -999  1832  1764  1944  2300  2651  2666
   2518  2104  1840  1795  1630  1268  1002   897   846   749   635   724   721   645   584   581   610   656   598   489
    471   491   504   393   351   343   424   394   415   482   449   399   450   426   391   341   283   335   409   411
    352   327   353   377   307   297   261   234  -999  -999  -999  -999  -999  -999   350  -999  -999  -999  -999  -999
   -999  -999  -999  -999  -999  -999  -999  -999  -999  -999  -999  -999  -999  -999  -999  -999  -999  -999  -999  -999
   -999  -999  -999  -999  -999  -999  -999  -999   117   283   397   396   388   389   364   349   342   377   454   525
    574   611   652   671   647   591   528   506   531   537   504   484   471   456   448   441   437   444   471   486
    489   487   410   327   313   324   353   378   376   340   291   237   191   189   186   177  -999  -999  -999  -999
     87    63    29  -999  -999   157   190   246   268   253   267   281   288   295   299   297   296   294   302   309
    308   307   307   309   307   276   268   335   349   365   387   403   415   425   436   445   457   471   487   503
    516   525   528   528   529   534   549   581   619   651   681   705   746   853  1112  1388  1580  1675  1762  1829
   1861  1912  1980  2073  2194  2325  2455  2574  2692  2873  3119  3505  4189  5286  6509  7716  8793  9585 10117 10467
  46485  9156  9223  9470  9749 10309 11207 12398 12778 13657 13709 12699 12316 11994 11143 10735 10495 11015 10554  8985
   6449  3704  2564  1888  1820  1925  2280  3370  4891  5324  5497  7407 14597 18224 19068 19978 14576 18124 20969 19639
  15184 13141 10806 10311 10056 13423 13225 19473 30430 35285 37531 37488 37372 37591 37569 37863 38050 37994 38137 38176
  38064 37821 37505 37233 37593 37894 37703 37397 37141 36987 36891 36774 36784 36668 36715 36872 36623 36671 36916 36886
  36746 36534 36244 35971 35639 35301 34953 34676 34472 34290 34153 34075 33827 33442 32124 29965 27709 25343 21811 18477
  14870 10002  6278  4514  3891  3763  3735  3789  3807  3905  3986  4051  4093  4120  3908  4032  4120  3837  3757  3813
   3711  3260  3112  2829  1643  1091  -999  -999  -999  -999  -999  -999  -999  -999  -999  -999  -999  -999  -999  -999
   -999  -999  -999  -999  -999  -999  -999  -999  -999   452  1270  1282  1242  1200  1140  1094  1322  1157   744   167
   -999  -999  -999  -999  -999   485   812   377   198  -999  -999  -999  1505  2097  1675   960  -999  -999  -999  -999
   -999  -999  -999  -999  -999  -999  -999   673   814  -999  -999  -999  -999  -999  -999  -999  -999  -999  -999  -999
   -999  4514  5304  4803  3924  3664  3554  3493  3742  4021  4261  4663  5025  5410  5583  5737  5846  5936  5800  5839
   5910  5703  5489  4772  3852  3769  4074  4116  3688  3704  3326  2862  3063  2576  2929  5699  7811  7257  5020  3165
   2053  1720  1339   571  -999  -999  -999  -999  -999  -999  -999  -999  -999  -999  -999  -999  -999  -999  -999  -999
   -999  -999  -999  -999  -999  -999  -999  -999  -999  -999  -999  -999  -999  -999  -999  -999  -999  -999  -999  -999
   -999  -999  -999  -999  -999  -999  -999  -999  -999  -999  -999  -999  -999  -999  -999  -999  -999  -999  -999  -999
   -999  -999  -999  -999  -999  -999  -999  -999  -999  -999  -999  -999  -999  -999  -999  -999  -999  -999  -999  -999
   -999  -999  1429  3134  2965  3211  2994  2144  1683  1762  1894  1940  1961  2114  2273  2305  3592  7884 13414 18022
  21113 24254 25649 27617 29977 31580 32579 33500 34012 34691 34959 35423 36089 36388 36387 36467 36511 36638 36695 35410
  32390 26051 23187 25468 28081 29233 29949 31033 29261 26616 28007 27682 25624 24137 26145 30835 26741 24425 23756 24195
  24089 23650 22805 21736 20199 17954 15387 12239  8593  5267  3885  3190  2747  2234  1766  1605  1245   861   637   529
    533   449   408   421   484   546   743   926  1056  1158  1305  1517  1553  1738  2062  2425  2615  2781  3131  3297
   3400  3492  3467  3303  3098  2820  2348  2144  1914  1723  1648  1605  1640  1701  1752  1803  1909  2035  2164  2365
   2340  2174  2104  2268  2510  2989  3111  3094  3050  2958  2913  2985  2995  2846  2782  2655  2570  2509  2537  2537
   2496  2313  1998  1732  1577  1552  1451  1439  1512  1509  1539  1501  1544  1386  1129   729  -999  -999  -999  -999
   -999  -999  -999  -999  -999  -999  1913  2108  2172  2250  2429  2383  2579  2585  2594  2549  2294  2227  2011  1662
   1413  1234  1284  1219   993   788   648   532   411   448   495   494   437   413   395   350   343   401   423   420
    417   412   396   307   263   301   466   466   414   354   375   410   422   341   338   332   259   243   214   237
   -999  -999  -999  -999  -999  -999  -999  -999  -999  -999  -999  -999  -999  -999  -999  -999  -999  -999  -999  -999
   -999  -999  -999  -999  -999  -999  -999  -999  -999  -999  -999  -999  -999  -999  -999  -999  -999  -999  -999  -999
   -999  -999  -999  -999  -999  -999  -999  -999   170   338   422   397   252   197   213   223   256   301   323   356
    424   456   486   484   473   459   425   387   381   412   416   395   388   390   395   395   393   400   406   420
    441   451   247   181   166   156   192   247   295   342   370   262   188   185   139  -999  -999  -999  -999  -999
   -999  -999  -999  -999  -999    24  -999  -999  -999  -999    56   103   159  -999   106   145   158   144   147   173
    175   177   174   153   123   129   186   215   228   243   280   312   337   357   374   385   392   396   399   404
    414   431   440   444   445   448   454   483   528   578   612   644   675   702   748   827   869   886   935  1042
   1184  1316  1441  1559  1677  1786  1879  1961  2028  2117  2310  2552  2859  3238  3754  4583  5382  6262  7017  7995
  40984  3310  3144  3290  3442  3365  3173  3108  2843  2791  2847  2769  2805  3004  3206  3512  3624  3676  3526  3023
   2710  2407  2173  1886  1856  2451  3416  4197  4565  4917  5129  5952  8840 14451 16975 18627 19111 18967 18423 18436
  18057 16129 10159  9202 10340 15312 24858 34636 37003 37641 37507 37409 37433 37463 37452 37466 37507 37520 37796 37925
  37990 37948 37707 37257 37244 37170 37009 37141 37058 36712 36648 36589 36814 36576 36403 36213 36135 36192 36127 35988
  35851 35611 35313 34860 34295 34013 33873 33803 33830 33847 33839 33980 33879 33405 32389 30217 28368 25571 21871 17996
  12477  7034  4102  3806  3717  3721  3830  3906  4100  4293  4507  4598  4720  4759  4644  4715  4857  4786  4567  4200
   3940  3792  3955  4056  4051  3893  3735  3226  3617  2665  2429  2339  1728  -999  -999  -999  -999  -999  -999  -999
   -999  -999   858  -999  -999  -999  -999  -999  1004  1494  1338  1044  1173  1246  1471  1154   967  1268  1329   784
    372  -999  -999  -999   739  1239  2155  1123  -999  -999  -999  -999  -999  -999  1723  1325  -999  -999  -999  -999
   -999  -999  -999  -999  -999  -999  -999  -999  -999  -999  -999  -999  -999  -999  -999  -999  -999  -999  -999  -999
   -999  2367  4654  4431  3677  3391  3465  3706  4144  4735  5271  6145  6887  7446  7835  8061  8140  8298  8464  8711
   9397  9952 10540 11499 11374 10353  9461  8569  5887  4299  3420  2825  2252  1850  1808  3193  5416  7255  8087  7322
   6054  4727  2652  1328   195  -999  -999  -999  -999  -999  -999  -999  -999  -999  -999  -999  -999  -999  -999  -999
   -999  -999  -999  -999  -999  -999  -999  -999  -999  -999  -999  -999  -999  -999  -999  -999  -999  -999  -999  -999
   -999  -999  -999  -999  -999  -999  -999  -999  -999  -999  -999  -999  -999  -999  -999  -999  -999  -999  -999  -999
   -999  -999  -999  -999  -999  -999  -999  -999  -999  -999  -999  -999  -999  -999  -999  -999  -999  -999  -999  -999
   2624  2165  2006  -999  2128  2146  2940  3209  2601  1890  1658  1811  2000  2836  5618 10449 16427 21837 26336 29774
  30848 31751 32491 32928 33504 33797 34168 34557 34815 35373 35808 35848 35912 35641 36054 36242 36110 36042 36116 36657
  36655 36536 34493 31590 28663 29486 29245 31134 32177 31565 31820 29265 27286 25169 22296 24235 28944 28255 25742 25453
  25004 24687 24205 23634 22708 21540 20102 18784 16673 13742 10092  5859  3161  2570  2141  1751  1587   853   682   487
    420   436   547   708   797   840  1021  1298  1512  1616  1830  2000  2327  2607  2834  3030  3158  3360  3543  3659
   3667  3616  3446  3080  2528  1986  1771  1792  1925  2002  1976  1926  1897  1783  1848  1893  1785  1741  1797  1794
   1735  1859  1922  1936  2048  2311  2747  2968  3031  2945  2867  2825  2819  2429  2387  2464  2483  2401  2368  2111
   1961  1682  1493  1480  1495  1614  1894  2223  2092  1751  1544  1196   399  -999  -999  -999  -999  -999  -999  -999
   -999  -999  1025  1834  2838  3352  3339  3017  2398  1763  1658  1765  1449  1320  1343  1523  2001  1523   851   588
    531   341   293   280   263   250   239   247   258   276   316   346   356   346   340   349   360   316   229   276
    363   395   363   284   196   231   419   468   431   325   295   289   212   259   188  -999  -999  -999  -999  -999
   -999  -999  -999  -999  -999  -999  -999  -999  -999  -999  -999  -999  -999  -999  -999  -999  -999  -999  -999  -999
   -999  -999  -999  -999  -999  -999  -999  -999  -999  -999  -999  -999  -999  -999  -999  -999  -999  -999  -999  -999
   -999  -999  -999  -999  -999  -999   195   246   330   341   329   257   178   162   174   202   226   225   203   232
    314   286   216   210   251   261   312   371   401   410   368   332   286   297   331   339   330   345   354   370
    369   342   276   191   152   140   152   171   190   217   286   308   267   228   201   180  -999  -999  -999  -999
   -999  -999  -999  -999  -999  -999  -999  -999    59    68    78    98   104    72    73  -999  -999  -999  -999  -999
   -999    53    97   113   101   123   154   165   174   182   195   245   304   354   380   393   399   401   403   407
    419   436   443   445   446   453   474   490   504   527   557   574   591   607   610   605   601   597   598   607
    653   729   789   872   950  1019  1052  1074  1129  1219  1323  1451  1580  1728  1894  2053  2135  2129  2184  2577
  38389  1373  1526  1697  1825  1926  2013  2061  2098  2126  2172  2180  2200  2276  2369  2436  2443  2323  2090  2049
   1960  1945  1864  1959  2380  2956  3554  3370  3461  3615  3563  4217  6187  9106 12025 14351 15850 16375 15710 11244
   8651 10645  9571 11619 19715 28609 36244 37404 37612 37723 37614 37741 37776 37797 37641 37352 37216 36879 37205 37299
  37244 37175 37104 37041 36975 36887 36780 36660 36563 36514 36423 36273 36255 36292 36437 36306 35983 35838 35698 35770
  35478 35152 34812 34452 34086 33790 33393 33050 32768 32693 32684 32812 32757 32228 30717 29466 28525 26975 25156 20932
  15813  8954  4402  3758  3574  3598  3690  3732  3674  3438  2789  3340  3667  3665  3824  -999  -999  -999  4487  4627
   4645  4480  4109  3840  4050  3782  4108  4522  4574  4505  4377  3789  3863  -999  -999  -999  -999  3305  3242  3017
   3292  3467  3451  3378  3349  3281  3238  3237  3228  3114  2841  2735  2450  2086  1881  1729  1566  1534  1440  1356
   1333  1429  1400  1063  1125  1314  1765  1803  1541  1438  1422  1506  1499  1479  1612  1847  1930  2059  1925  2218
   2540  2632  2029  2379  -999  -999  4098  4668  4843  4786  4404  -999  5338  4997  5272  6317  -999  6403  6195  6213
   5316  5857  6093  5919  5870  5652  5794  6202  6104  5914  6009  6216  6608  7281  8217  9060 10271 11490 12587 14101
  15613 16583 17639 18889 19878 20657 21186 21442 19855 16597 12958  8466  5474  3934  3446  4727  5743  6569  7104  7298
   7580  7766  6547  3238  1248   543   134  -999  -999  -999  -999  -999  -999  -999  -999  -999  -999  -999  -999  -999
   -999  -999  -999  -999  -999  -999  -999  -999  -999  -999  -999  -999  -999  -999  -999  -999  -999  -999  -999  -999
   -999  -999  -999  -999  -999  -999  -999  -999  -999  -999  -999  -999  -999  -999  -999  -999  -999  -999  -999  -999
   -999  -999  -999  -999  -999  -999  -999  -999  -999  -999  -999  -999  -999  -999  -999  -999  -999  -999  -999  -999
   -999  -999  1013  1362  1931  2353  2571  2884  2907  2838  2645  3008  7562 16600 22468 25052 27250 29174 30243 30888
  31545 32048 32217 32521 32969 33411 33562 33827 34397 34955 35215 35063 34778 35345 35674 35831 36069 35145 34633 35371
  35638 35345 35331 35464 36223 36183 34097 32583 32552 32752 31903 29512 27946 24213 21513 21725 24037 29355 27237 24230
  24416 24311 23847 23425 23080 22572 21962 21209 20221 19041 16905 13191  7823  2847  1947  1574  1366   761   526   493
    765  1131  1301  1386  1636  1351  1520  2024  2456  2741  3086  3334  3477  3615  3757  3823  3780  3787  3773  3735
   3428  3318  2971  2509  1986  2003  2364  2533  2588  2562  2612  2641  2533  2334  2198  1890  1662  1719  1743  1774
   1829  1916  1977  2010  2145  2360  2670  2861  3035  3089  2943  2912  2809  2324  2044  2304  2260  2079  1728  1538
   1478  1389  1428  1632  1874  2126  2105  1843  1598  1387  1020   702  -999  -999  -999  -999  -999  -999  -999   631
   1328  2269  3105  3357  3203  2968  1613   773   804   794   822  1085  1253  1295   981   849  1042   774   299   251
    259   194   177   204   225   231   204   199   210   223   235   250   268   302   299   301   314   302   202    92
    167   326   368   358   327   334   348   361   297   236   179    87    43  -999  -999  -999  -999  -999  -999  -999
   -999  -999  -999  -999  -999  -999  -999  -999  -999  -999  -999  -999  -999  -999  -999  -999  -999  -999  -999  -999
   -999  -999  -999  -999  -999  -999  -999  -999  -999  -999  -999  -999  -999  -999  -999  -999  -999  -999  -999  -999
   -999  -999   120   124  -999  -999  -999   166   263   319   253   164   119   111   121   142   143   144   153   224
    235   167   141   139   137   115   121   151   210   249   290   322   311   296   288   314   324   323   275   229
    241   247   233   177   146   130   122   106   127   156   211   268   265   232   204   197   185   173   177   161
    172   165   142   137   146   153   143   133   130   127   132   132   123   115   111   103    88    76    75    74
     78    83    95    96    94   112   138   152   168   182   195   242   299   378   392   385   378   380   378   385
    393   402   414   424   432   438   441   444   445   447   451   458   474   494   496   496   504   516   525   530
    535   542   552   562   571   571   562   551   548   571   623   682   731   799   859   908   966  1053  1128  1183
  38148  1124  1180  1261  1360  1464  1573  1685  1793  1878  1899  1822  1781  1921  1922  1858  1797  1747  1695  1655
   1642  1649  1696  1804  1896  1956  1913  1836  1831  1893  1990  2208  2395  2762  3338  4532  5370  6143  9258 12720
  15467 19295 25418 31080 35543 36693 36722 36998 37075 37459 37509 37536 37561 37580 37576 37532 37697 37433 37345 37259
  37349 37231 37066 36968 36857 36716 36579 36473 36396 36306 36202 36069 35994 35934 35827 35710 35698 35767 35398 34712
  34496 34281 34117 34082 33695 33155 32804 32240 31673 31186 30801 30413 29977 29669 29288 28666 27772 26627 25017 21015
  15272  8873  4318  3504  3143  2676  2175  1498   909   552   279   105  -999  -999  -999  -999  -999  -999  -999  -999
   -999  -999  -999  -999  -999  -999  -999  3602  4088  4299  4577  4731  4801  4764  4688  4543  4272  4057  3816  3520
   3370  3229  3181  3153  3130  3120  3130  3226  3348  3800  3727  3771  3782  3515  2964  2207  1801  1463  1297  1084
   1049   713   704  -999  -999  1640  2175  2212  2068  1544  1376  -999  -999  -999  -999  -999  1376  -999  -999  1703
   2126  2963  3697  3931  3788  3778  4017  4453  4471  4392  4519  4705  5537  5978  6280  6671  6699  6845  6942  7620
   7772  8125  8037  8427  8724  8551  8412  8338  8381  8208  8102  8023  8015  8043  8401  9547 10354 11039 12305 14380
  16427 17695 19114 20497 21134 21832 22348 22628 22579 21386 17734 11624  7940  7213  6885  6622  6136  5859  5609  5576
   5317  4114  2213  2733  3377  1595   464    85  -999  -999  -999  -999  -999  -999  -999  -999  -999  -999  -999  -999
   -999  -999  -999  -999  -999  -999  -999  -999  -999  -999  -999  -999  -999  -999  -999  -999  -999  -999  -999  -999
   -999  -999  -999  -999  -999  -999  -999  -999  -999  -999  -999  -999  -999  -999  -999  -999  -999  -999  -999  -999
   -999  -999  -999  -999  -999  -999  -999  -999  -999  -999  -999  -999  -999  -999  -999  -999  -999  -999  -999  1567
   1640  1989  2160  2207  2401  2168  2210  2328  2809  5213 10199 15385 20571 24162 26463 27815 28445 29170 29762 30229
  30783 30883 31518 31722 32180 32640 33188 33728 33965 34273 34429 34394 34320 34833 33918 32813 32276 32221 32091 31335
  31242 29892 31491 32730 32307 31733 31190 31132 30768 30051 29493 28660 29355 27190 23873 20304 20764 26805 27113 24121
  23596 23012 22240 21561 20799 19930 19119 18039 16760 15529 14041 10452  6006  3414  2748  2381  1906  1512  1432  1594
   1937  2457  3277  3621  3957  4053  4142  4216  4293  4322  4366  4366  4186  4187  4096  3973  3881  3824  3729  3632
   3471  3237  3013  2886  2862  2908  2904  3036  3042  2958  2713  2596  2455  2376  2356  2238  2182  2191  2196  2103
   2246  2394  2506  2645  2837  3004  3189  3421  3501  3439  3331  3189  2832  2705  2608  2617  2481  2242  1936  1750
   1686  1727  2079  2097  2253  1719  1395   928   821   606  -999  -999  -999  -999  -999  -999  -999  1222  2070  2426
   2921  2840  1902  1723  2122  1795  1281  1047   966  1223  1303  1107   918   800   611   518   373   280   199   177
    163   155   158   179   195   208   226   215   177   166   196   199   202   217   242   254   240   234   254   298
    336   359   366   314   287   237   207   208   226   199   170    97    55  -999  -999  -999  -999  -999  -999  -999
   -999  -999  -999  -999  -999  -999  -999  -999  -999  -999  -999  -999  -999  -999  -999  -999  -999  -999  -999  -999
   -999  -999  -999  -999  -999  -999  -999  -999  -999  -999  -999  -999  -999  -999  -999  -999  -999  -999  -999  -999
   -999   100    73    49    60    71    88   117   198   181   150   121   107   104    98    99   101   110   121   165
    165   128   113   102    95    97    76    47    61    76    82    92   135   193   236   245   238   224   162    98
    140   192   206   184   142   116    83    90   106   119   187   240   206   182   179   187   180   165   146   123
     89  -999    33    53    66    74    75    86    95   101   101   106   118   130   139   140   137   134   131   127
    121   117   121   134   145   157   166   192   231   257   298   337   314   298   278   279   294   282   289   305
    318   327   340   357   368   382   391   397   405   418   419   418   420   421   418   418   428   442   451   453
    456   458   457   462   470   470   461   453   451   454   465   481   501   520   535   543   546   584   763   990
  37643   837   866   910   950   991  1048  1157  1316  1492  1555  1419  1276  1335  1305  1298  1301  1242  1217  1200
   1196  1194  1184  1144  1165  1122   965   815   763   791   873  1010  1140  1222  1219  1476  1957  2598  5600 11540
  15676 18929 21821 24382 27373 29818 32337 34467 34885 35786 36605 37092 37439 37496 37496 37467 37391 37310 37225 37250
  37399 37275 36848 36845 36721 36600 36326 36079 35819 35758 35868 35665 35735 35361 35014 34827 34656 34569 34591 34435
  33809 33214 32866 32318 31792 31529 31355 31023 30576 29974 29435 28918 28358 27756 27365 27056 26570 25798 24888 21553
  16197  9631  5394  3681  2414  1786  1418  1070   792   485   272   118  -999  -999  -999  -999  -999  -999  -999  -999
   -999  -999  -999  -999  -999  -999  -999  -999  -999   991  1665  2262  1881  2077  2223  2187  2168  2054  1937  1865
   1699  1390  1148  1147   984   932   794  -999  -999  -999  -999  1143  2622  3211  2584  1413   952   650  -999  -999
   -999  -999  -999  -999  -999  -999  1139  2324  2305  -999  -999  -999  -999  -999  -999  -999  -999  -999  -999  2938
   3781  4063  3347  2830  -999  -999  -999  -999  -999  5538  4746  3807  3887  -999  -999  -999  -999  -999  2571  -999
   -999  -999  -999  -999  -999  -999  7943  8076  9263  9235  9284  9284  9188  8919  9217 10186 11056 11691 12418 14482
  16741 18294 20024 21265 22088 22819 23287 23453 23360 22947 21430 17143 10992  7177  5840  5108  4827  4491  4125  3818
   3184  2800  2812  5295  8003  4585  1242   198    51  -999  -999  -999  -999  -999  -999  -999  -999  -999  -999  -999
   -999  -999  -999  -999  -999  -999  -999  -999  -999  -999  -999  -999  -999  -999  -999  -999  -999  -999  -999  -999
   -999  -999  -999  -999  -999  -999  -999  -999  -999  -999  -999  -999  -999  -999  -999  -999  -999  -999  -999  -999
   -999  -999  -999  -999  -999  -999  -999  -999  -999  -999  -999  -999  -999  -999  -999  -999  -999  -999  -999  2162
   1980  2118  1989  2077  2312  2395  2629  3846  8036 14577 19220 22375 24244 25412 26169 27089 27836 28294 28537 28929
  29219 26569 24326 29866 31209 30906 31493 31038 31636 30462 30712 30617 29360 29031 29674 30190 30113 30326 29674 30123
  29892 29657 29989 29737 30357 30027 29201 28510 28062 27043 25609 24612 24097 24180 23619 25820 24722 25567 23802 23350
  22630 21787 20938 19708 18559 17268 15897 14219 12239  9532  6933  4961  4589  4492  4364  4140  3881  3816  3991  4315
   4550  4618  4663  4612  4505  4374  4260  4187  4129  4099  4253  4245  4145  4224  4080  3806  3646  3591  3720  3630
   3525  3519  3450  3229  2915  2867  2861  2801  2604  2522  2466  2448  2496  2450  2391  2376  2378  2391  2419  2565
   2755  2959  3062  2999  3045  3276  3418  3475  3426  3368  3306  3292  3148  3147  3034  2917  2711  2448  2446  2431
   2479  2428  2292  1859  1234   863   698   472  -999  -999  -999  -999  -999  -999  -999  1283  2086  2556  2916  3590
   3639  2273  1412  1315   928  1190  1214  1159   937  1033  1027   948   708   496   462   460   331   233   191   143
     96    95    89    96   146   196   208   160    89   103   119    85    63    74   110   138   146   150   188   255
    210   198  -999  -999  -999  -999  -999  -999  -999  -999  -999  -999  -999  -999  -999  -999  -999  -999  -999  -999
   -999  -999  -999  -999  -999  -999  -999  -999  -999  -999  -999  -999  -999  -999  -999  -999  -999  -999  -999  -999
   -999  -999  -999  -999  -999  -999  -999  -999  -999  -999  -999  -999  -999  -999  -999  -999  -999  -999  -999  -999
   -999  -999  -999  -999  -999  -999  -999    40  -999  -999  -999  -999  -999  -999  -999  -999  -999    42    48    76
    120   146   140   117   101    99    74  -999  -999  -999  -999  -999  -999    27    35    37    51    77   106   141
    165   219   223   200   188   152   137   130   138   155   197   227   215   203   204   206   168   144   122   105
     79    54  -999  -999  -999  -999  -999    37    45    50    51    63    87    98   106   115   124   133   141   145
    148   150   149   141   145   168   202   251   296   317   343   331   278   253   229   200   212   229   239   248
    260   270   274   279   286   296   306   309   312   320   330   342   352   354   356   360   366   371   377   384
    384   387   393   398   404   410   415   420   425   432   439   450   463   477   489   501   519   551   626   722
  36841   641   683   718   744   775   816   913  1081  1081   942   925   777   682   676   809   820   661   665   764
    882   938   867   664   639   619   582   576   581   608   649   684   742   818   891  1014  1080  1089  1278  1423
   1876  3090  5486  9554 14229 16671 21758 26231 28591 30614 31979 34853 34632 36020 36643 37259 37208 37036 36930 36697
  36645 36643 36265 36140 35989 36052 36047 35829 35392 35155 35292 35096 34875 34531 34166 33910 33685 33508 32582 32637
  32352 31458 30435 29589 28950 28594 28657 28624 28095 27485 26865 26005 25431 24852 24199 23613 22883 21962 20815 19096
  15170  8703  5125  3537  2670  1891  1394   837   518   311   170  -999  -999  -999  -999  -999  -999  -999  -999  -999
   -999  -999  -999  -999  -999  -999  -999  -999  -999  -999  -999  -999   199   676  -999  1895  1960  1795  1475  1303
   2072  2194  1705  1966  -999  -999  -999  -999  -999  -999   353  1535  2845  3274  2155   742  -999   505   486   209
   -999  -999  -999  -999  -999  -999  -999  2335  2644  -999  -999  -999  -999  -999  -999  -999  -999  2445  3479  4084
   3787  2261  -999  -999  -999  -999  -999  -999  4625  3769  -999  -999  -999  -999  -999  -999  -999  -999  -999  -999
   -999  -999  -999  -999  -999  -999  -999  -999  4046  6745  8079  8536  8677  8599  8800  9505 10971 11949 13382 15508
  17293 18790 20338 21674 22449 23072 23437 23489 23390 23228 22827 21939 20856 19075 17332 14506  9958  6114  4462  4622
   5317  5744  5746  4658  3657  3531  2909  1318   125    76  -999  -999  -999  -999  -999  -999  -999  -999  -999  -999
   -999  -999  -999  -999  -999  -999  -999  -999  -999  -999  -999  -999  -999  -999  -999  -999  -999  -999  -999  -999
   -999  -999  -999  -999  -999  -999  -999  -999  -999  -999  -999  -999  -999  -999  -999  -999  -999  -999  -999  -999
   -999  -999  -999  -999  -999  -999  -999  -999  -999  -999  -999  -999  -999  -999  -999  -999  1968  2087  2306  2292
   2543  2921  2911  3058  3140  3139  3076  6824 16581 20809 22433 23713 24781 25596 25792 25924 26178 26314 26671 27239
  27382 27490 25822 26046 25616 26363 26914 27054 26914 27246 28238 28443 27947 28295 28975 28000 28666 29109 28642 28570
  28867 27966 27943 26869 25999 24741 24476 24255 23804 25042 24681 24329 24394 24733 23960 24411 24249 23810 23362 22681
  21857 20901 19863 18631 17320 15998 14562 12589 10488  8178  5534  4609  4500  4398  4308  4239  4134  4066  4061  4143
   4238  4286  4226  4255  4273  4126  3900  3700  3681  3939  3979  3893  3770  3713  3437  2969  3032  3191  3006  2823
   2732  2739  2760  2679  2538  2507  2416  2319  2103  2124  2242  2218  2213  2184  2229  2321  2445  2624  2748  2977
   3166  3261  3406  3274  3283  3277  3238  3148  3106  3213  3201  3155  2962  2698  2900  2894  2711  2472  2341  2275
   2163  1952  1713  1232   731   479   328  -999  -999  -999  -999  -999  -999   406  1495  2578  2701  3133  3502  3002
   1558  1016   952   979   871   912   910   905   595   583   779   790   670   685   661   524   413   266   138    92
   -999  -999  -999  -999    80   159   198   195   119    64    47    89    62    39    47    71    89    91    43    80
     87    24  -999  -999  -999  -999  -999  -999  -999  -999  -999  -999  -999  -999  -999  -999  -999  -999  -999  -999
   -999  -999  -999  -999  -999  -999  -999  -999  -999  -999  -999  -999  -999  -999  -999  -999  -999  -999  -999  -999
   -999  -999  -999  -999  -999  -999  -999  -999  -999  -999  -999  -999  -999  -999  -999  -999  -999  -999  -999  -999
   -999  -999  -999  -999  -999  -999  -999  -999  -999  -999  -999  -999  -999  -999  -999  -999  -999  -999  -999  -999
   -999  -999    95    81    48    39    41  -999  -999  -999  -999  -999  -999  -999  -999  -999  -999  -999  -999    27
     95   186   221   228   182   137   116   138   137   137   140   157   172   170   189   227   217   170   142   122
     98    93   115   117   102    90    89    84    83    85    85    85    81    78    78    85    94   107   120   134
    140   143   144   141   143   163   199   239   285   299   299   295   255   235   223   214   214   221   233   242
    250   250   238   225   243   252   264   269   273   276   279   283   287   291   299   299   297   295   294   304
    327   341   349   366   393   418   399   398   404   416   428   440   462   484   491   495   500   498   536   580
  36451   487   515   548   586   621   661   741   915   758   567   651   575   546   570   636   680   610   596   622
    601   593   639   552   541   520   510   508   508   506   508   509   494   472   443   451   448   437   448   469
    507   595   735   920  1426  2570  6702 11876 12774 16104 20349 23395 27144 29047 30967 32010 33172 34992 35933 36075
  36155 36291 36026 36078 36040 35982 35953 34892 34402 34018 33438 33654 33240 33257 33197 32564 31814 31432 31212 30823
  30010 29376 28213 27101 26237 25452 25206 25264 24948 24516 23929 22971 21936 21081 19868 19007 17982 16586 14701 12166
   9461  5678  3446  3072  2180  1171   536   296   195   112  -999  -999  -999  -999  -999  -999  -999  -999  -999  -999
   -999  -999   782   684  -999  -999  -999  -999  -999  -999  -999  -999  -999  -999  -999  -999  -999  -999   718  -999
   -999  -999  -999   699  1242  -999  -999  -999  -999  -999   426  1433  2384  2780  2237   839  -999  -999  -999  -999
   -999  -999  -999  -999  -999  -999  -999  -999  3822  2052  -999  -999  -999   566   911  1139  2370  3395  3750  2950
   1473  -999  -999  -999  -999  -999  -999  -999  3946  -999  -999  -999  -999  -999  -999  -999  -999  -999  -999  -999
   -999  -999  -999  -999  -999  -999  -999  -999  -999  -999  2622  2461  3097  4870  6912  8612 10200 11478 13561 15927
  17593 18856 20374 21541 22566 23251 23478 23444 23405 23296 23179 22781 22378 21916 21276 19340 14370  9968  7224  6220
   4859  3601  2867  2322  2206  2163  2367  2630  2074  -999  -999  -999  -999  -999  -999  -999  -999  -999  -999  -999
   -999  -999  -999  -999  -999  -999  -999  -999  -999  -999  -999  -999  -999  -999  -999  -999  -999  -999  -999  -999
   -999  -999  -999  -999  -999  -999  -999  -999  -999  -999  -999  -999  -999  -999  -999  -999  -999  -999  -999  -999
   -999  -999  -999  -999  -999  -999  -999  -999  -999  -999  -999  -999  -999  -999  -999  -999  1053  1899  2560  2767
   2311  2509  2589  2571  3044  5395  8228 12827 16517 17986 18577 18096 18983 19404 19445 20543 21634 19015 20644 22213
  22019 22679 24019 24939 25170 25513 25420 26050 26023 26080 27068 27050 27505 27097 28018 26739 26521 24952 24255 23027
  23182 22142 23006 23782 23929 23269 24440 24471 23975 23604 24227 25589 25859 25850 26024 25711 25143 24479 23751 22984
  22043 21228 20306 19232 17928 16624 15073 13286 11256  9250  6408  4968  4737  3977  3772  3617  3589  3607  3600  3633
   3636  3643  3535  3547  3517  3467  3296  3137  2959  2849  2704  2556  2626  2694  2706  2828  2922  2981  2868  2828
   2820  2848  2874  2802  2724  2704  2761  2763  2708  2643  2513  2333  2273  2194  2242  2332  2447  2638  2838  3067
   3316  3380  3295  3191  2927  2663  2557  2578  2636  2730  2828  2807  2715  2643  2501  2381  2124  1834  1664  1446
   1290  1390  1110   760   505   258  -999  -999  -999  -999  -999  -999   899  2081  2557  3109  3177  2519  1566  1301
   1325  1316  1137   998  1015   992   843   661   716   785   798   912  1058  1141   979   648   370   203  -999  -999
   -999  -999  -999  -999  -999  -999    62   171   141    73    42  -999    56    64    44    34  -999    44    47    51
     52    37  -999  -999  -999  -999  -999  -999  -999  -999  -999  -999  -999  -999  -999  -999  -999  -999  -999  -999
   -999  -999  -999  -999  -999  -999  -999  -999  -999  -999  -999  -999  -999  -999  -999  -999  -999  -999  -999  -999
   -999  -999  -999  -999  -999  -999  -999  -999  -999  -999  -999  -999  -999  -999  -999  -999  -999  -999  -999  -999
   -999  -999  -999  -999  -999  -999  -999  -999  -999  -999  -999  -999  -999  -999  -999  -999  -999  -999  -999  -999
   -999  -999  -999  -999  -999  -999  -999  -999  -999  -999  -999  -999  -999  -999  -999  -999  -999  -999  -999     9
     46   135   185   188   181   179   185   188   190   189   177   175   184   190   196   211   182   143   110    88
     40  -999  -999  -999  -999  -999  -999  -999  -999  -999    41    32    38    36    35    43    54    61    65    73
     96   121   143   145   148   162   190   223   238   233   223   208   191   192   198   202   202   207   214   215
    219   205   205   201   221   231   236   244   246   248   251   258   265   272   279   284   286   290   295   297
    305   320   342   365   390   430   387   384   390   401   411   421   436   452   461   460   455   456   462   467
  34281   377   390   391   393   408   455   522   616   690   654   562   514   526   539   560   568   571   570   566
    555   528   499   493   501   486   469   456   442   425   411   403   397   384   374   367   349   360   381   418
    434   477   528   582   644   808  1161  1376  1536  3016  5560  6972  8400 10707 15115 18437 21128 26194 29295 30409
  31341 33747 33967 33837 34158 34522 34234 33863 34695 34368 32954 32448 32174 32041 31615 31355 30013 29445 28689 27888
  27303 26743 26381 25499 24408 23359 22567 22004 21293 21030 19983 19182 18070 16885 16003 14628 13060 11283  9009  6175
   3943  3461  3639  3841  3902  3658  2584  1317   797  1168  -999  -999  -999  -999  -999  -999  -999  -999  -999  -999
    814   981   658  -999  -999  -999  -999  -999  -999  -999  -999  -999  -999  -999  -999  -999  -999  -999  -999  -999
   -999  -999  -999  -999   406  -999  -999  -999  -999  -999  -999   610  1307  2024  2374  2200  1486   856   516   391
   -999  -999  -999  -999  -999  -999  -999  2641  4042  1916  -999  -999   417  1071  1085  1496  2426  3314  3149  1964
    424  -999  -999  -999  -999  -999  -999  -999   717  -999  -999  -999  -999  -999  -999  -999  -999  -999  -999  -999
   -999  -999  -999  -999  -999  -999  -999  -999  -999  -999  -999  -999  1433  2620  4024  5045  5429  6985 11418 14801
  16638 18463 20069 21430 22337 22963 23113 23139 23155 23132 23054 22868 22756 22658 22220 21426 20070 17639 13906  9780
   5489  3882  3547  3176  2689  2534  2201  1849  1222   817  -999  -999  -999  -999  -999  -999  -999  -999  -999  -999
   -999  -999  -999  -999  -999  -999  -999  -999  -999  -999  -999  -999  -999  -999  -999  -999  -999  -999  -999  -999
   -999  -999  -999  -999  -999  -999  -999  -999  -999  -999  -999  -999  -999  -999  -999  -999  -999  -999  -999  -999
   -999  -999  -999  -999  -999  -999  -999  -999  -999  -999  -999  -999  -999  -999  -999  2541  2702  3409  2980  2840
   2730  2695  2859  3586  8993 14315 16549 16083 14256 12472 12252 13041 15394 17147 19784 22002 22945 22538 22678 22636
  22997 23466 23821 24021 24011 24539 25527 25427 24160 23942 22717 22124 22272 21928 21882 21058 21781 22186 21909 22163
  22226 24101 23802 24054 24984 24710 25121 26685 27339 28323 28924 28599 28490 28093 27735 27275 26715 26095 25336 24414
  23460 22590 21803 20957 19741 18447 17060 15659 14286 12784 10672  8184  5106  3672  3412  3243  3102  3056  3009  2984
   3095  3348  3417  3422  3502  3419  3173  2913  2828  2799  2619  2524  2618  2721  2711  2754  2695  2763  2813  2872
   3147  3292  3181  3068  2934  2782  2588  2579  2566  2441  2397  2401  2534  2633  2690  2802  2937  3050  3141  3221
   3299  3327  3182  2919  2748  2589  2554  2550  2525  2253  2168  2108  2051  2021  1707  1398  1297  1381  1277  1174
   1182  1113   933   452  -999  -999  -999  -999  -999  -999  -999  -999  1237  2567  3077  2934  2175  1717  1333  1226
   1133  1082  1088  1091   944   801   893  1069  1005   988  1088  1279  1121   819   894   654   321   130  -999  -999
   -999  -999  -999  -999  -999  -999    57    72    71  -999  -999    44    45  -999  -999    33  -999  -999  -999  -999
   -999  -999  -999  -999  -999  -999  -999  -999  -999  -999  -999  -999  -999  -999  -999  -999  -999  -999  -999  -999
   -999  -999  -999  -999  -999  -999  -999  -999  -999  -999  -999  -999  -999  -999  -999  -999  -999  -999  -999  -999
   -999  -999  -999  -999  -999  -999  -999  -999  -999  -999  -999  -999  -999  -999  -999  -999  -999  -999  -999  -999
   -999  -999  -999  -999  -999  -999  -999  -999  -999  -999  -999  -999  -999  -999  -999  -999  -999  -999  -999  -999
   -999  -999  -999  -999  -999  -999  -999  -999  -999  -999  -999  -999  -999  -999  -999  -999  -999  -999  -999    27
     73   131   151   147   147   153   103   125   149   153   160   164   158   143   134   123   105    73    59    44
   -999  -999  -999  -999  -999  -999  -999  -999  -999  -999  -999  -999    23  -999  -999  -999  -999  -999  -999  -999
     23    47    80   118   142   147   154   162   163   160   156   152   148   160   174   174   178   183   187   192
    191   172   178   193   199   202   208   220   232   242   242   238   240   244   246   249   253   266   282   290
    295   314   370   398   400   399   391   389   367   349   350   350   352   353   347   359   375   383   390   391
   -999  -999  -999  -999   132   181   255   298   335   437   689   611   470   482   489   496   501   509   509   510
    507   497   481   472   461   458   448   436   416   391   395   404   403   420   434   445   450   466   482   496
    502   512   600   714   753   832   920   859   765   791   547   396   435   533   880  2155  4581  7449 10876 14672
  16059 19144 18925 21215 24141 26201 27623 28709 28003 29133 28932 29486 28692 29082 29492 29468 28828 27611 25897 24806
  24254 23225 22467 21317 20043 19396 18793 17637 17111 16359 14933 13614 12024 10547  8910  8088  7249  5635  3851  1964
   1380  1461  1587  1822  2280  3015  3770  4280  3784  3268  2363  2068  1772  -999  -999  -999  -999  -999  -999   941
   1451  1184   849  1169  -999  -999  -999  -999  -999  -999  -999  -999  -999  -999  -999  -999  -999  -999  -999  -999
   -999  -999  -999  -999  -999  -999  -999  -999  -999  -999  -999  -999   627  1161  1561  1753  1945  1823  1489  1246
    960   612  -999  -999   632  1283  1577  2649  2472  -999  -999  -999  -999  -999   652  1875  2577  2644  2385  1563
    586  -999  -999  -999  -999  -999  -999  -999  -999  -999  -999  -999  -999  -999  -999  -999  -999  -999  -999  -999
   -999  -999  -999  -999  -999  -999  -999  -999  -999  -999  -999  -999  -999  1234  -999  -999  -999  1535  2498  5110
   5219  6755 10337 13893 16975 19076 20541 21653 22305 22552 22493 22489 22316 22247 22096 21549 20032 17850 14378 10009
   6147  4342  3554  3057  2710  2427  2120  2133  1574  1155  -999  -999  1701  3813  -999  -999  -999  -999  -999  -999
   -999  -999  -999  -999  -999  -999  -999  -999  -999  -999  -999  -999  -999  -999  -999  -999  -999  -999  -999  -999
   -999  -999  -999  -999  -999  -999  -999  -999  -999  -999  -999  -999  -999  -999  -999  -999  -999  -999  -999  -999
   -999  -999  -999  -999  -999  -999  -999  -999  -999  -999  -999  -999  -999  -999  -999  -999  1291  1926  2572  2629
   2786  3209  4956 11318 15524 16859 16163 15128 15440 13216 11829 10868 11471 13610 13914 16275 17630 17021 15173 16868
  18730 18202 18470 19167 19876 17891 15401 16315 17206 17961 20841 20078 20386 19447 20247 20508 21443 20625 22363 24943
  25036 27778 27809 27004 29279 30052 29907 30447 30771 30665 30088 30271 30089 29750 29230 28580 27958 27283 26451 25619
  24953 24186 23792 23206 22280 21466 20323 18956 17329 15761 14297 12273  9921  6332  3277  2791  2577  2485  2404  2268
   2330  2604  2891  3274  3349  3741  3922  3548  3204  2902  2752  2802  2843  2911  3152  3419  3593  3604  3422  3214
   3111  2940  2872  2746  2769  2796  2769  2665  2400  2178  2117  2206  2316  2417  2538  2760  3029  3375  3555  3509
   3355  3281  3005  2592  2248  2194  2355  2314  1977  1434  1146   853   880   932   734   895  1015  1056  1115  1105
   1020  1084  1023   885   602  -999  -999  -999  -999  -999  -999  -999   482  1196  2311  2697  2186  2016  1743  1546
   1042   739   734   831   975  1067  1197  1176   834   836  1199  1174   774   315   154   182  -999  -999  -999  -999
   -999  -999  -999  -999  -999    46    51  -999  -999  -999  -999    42    56    50  -999  -999  -999  -999  -999  -999
   -999  -999  -999  -999  -999  -999  -999  -999  -999  -999  -999  -999  -999  -999  -999  -999  -999  -999  -999  -999
   -999  -999  -999  -999  -999  -999  -999  -999  -999  -999  -999  -999  -999  -999  -999  -999  -999  -999  -999  -999
   -999  -999  -999  -999  -999  -999  -999  -999  -999  -999  -999  -999  -999  -999  -999  -999  -999  -999  -999  -999
   -999  -999  -999  -999  -999  -999  -999  -999  -999  -999  -999  -999  -999  -999  -999  -999  -999  -999  -999  -999
   -999  -999  -999  -999  -999  -999  -999  -999  -999  -999  -999  -999  -999  -999  -999  -999  -999  -999  -999    81
     85   126   144   143   142  -999  -999    53    74    85    94  -999  -999  -999    62    44    25  -999  -999    41
   -999  -999  -999  -999  -999  -999  -999  -999  -999  -999  -999  -999  -999  -999  -999  -999  -999  -999  -999  -999
   -999  -999    25    46    82   116   122   125   124   117   107    96    95    95    86    86   100   121   127   131
    153   148   169   182   183   189   198   186   197   203   225   213   205   208   230   241   254   291   337   363
    395   410   402   405   411   413   405   402   393   379   361   349   333   295   269   293   313   299   249   216
   -999  -999  -999  -999   261   286   344   415   488   582   690   653   433   374   382   400   412   417   421   407
    406   400   411   411   463   464   438   413   388   372   392   396   422   428   425   426   413   439   473   492
    507   567   472   377   323   343  -999  -999  -999    23  -999    94   133   180   195   195   179   222   269   327
    440   558   556  1234  3258  5558  8074  8724  8452  8923  9318 10600 12205 14190 16334 18209 21066 22509 22897 21643
  19973 19822 18629 17248 16076 15004 13721 11307  9272  7089  4586  3406  2917  2103  1465   955   651   599   529   435
    373   344   352   452   768  1565  2605  3462  3757  3647  3322  3819  4050  3473  3428  3088  2916  2472  2326  2092
[...]
   -999  -999  -999  -999  -999  -999  -999  -999  -999  -999  -999  -999  -999  -999  -999  -999  -999  -999  -999  -999
   -999  -999  -999  -999  -999  -999  -999  -999  -999  -999  -999  -999  -999  -999  -999  -999  -999  -999  -999  -999
   -999  -999  -999  -999  -999  -999  -999  -999  -999  -999  -999  -999  -999  -999  -999  -999  -999  -999  -999  -999
   -999  -999  -999  -999  -999  -999  -999  -999  -999  -999  -999  -999  -999  -999  -999  -999  -999  -999  -999  -999
   -999  -999  -999  -999  -999  -999  -999  -999  -999  -999  -999  -999  -999  -999  -999  -999  -999  -999  -999  -999
   -999  -999  -999  -999  -999  -999  -999  -999  -999  -999  -999  -999  -999  -999  -999  -999  -999  -999  -999  -999
   -999  -999  -999  -999  -999  -999  -999  -999  -999  -999  -999  -999  -999  -999  -999  -999  -999  -999  -999  -999
   -999  -999  -999  -999  -999  -999  -999  -999  -999  -999  -999  -999  -999  -999  -999  -999  -999  -999  -999  -999
   -999  -999  -999  -999  -999  -999  -999  -999  -999  -999  -999  -999  -999  -999  -999  -999  -999  -999  -999  -999
   -999  -999  -999  -999  -999  -999  -999  -999  -999  -999  -999  -999  -999  -999  -999  -999  -999  -999  -999  -999
   -999  -999  -999  -999  -999  -999  -999  -999  -999  -999  -999  -999  -999  -999  -999  -999  -999  -999  -999  -999
   -999  -999  -999  -999  -999  -999  -999  -999  -999  -999  -999  -999  -999  -999  -999  -999  -999  -999  -999  -999
   -999  -999  -999  -999  -999  -999  -999  -999  -999  -999  -999  -999  -999  -999  -999  -999  -999  -999  -999  -999
   -999  -999  -999  -999  -999  -999  -999  -999  -999  -999  -999  -999  -999  -999  -999  -999  -999  -999  -999  -999
   -999  -999  -999  -999  -999  -999  -999  -999  -999  -999  -999  -999  -999  -999  -999  -999  -999  -999  -999  -999
   -999  -999  -999  -999  -999  -999  -999  -999  -999  -999  -999  -999  -999  -999  -999  -999  -999  -999  -999  -999
   -999  -999  -999  -999  -999  -999  -999  -999  -999  -999  -999  -999  -999  -999  -999  -999  -999  -999  -999  -999
   -999  -999  -999  -999  -999  -999  6024  6028  4625  3888  5209  5963  6122  6148  6120  6079  6017  5897  5749  5508
   5358  5269  4729  4159  3935  3927  4018  4418  4656  4564  4388  4421  4577  4494  4849  5500  5731  5953  5967  5886
   5575  5378  5217  5068  4986  4974  4966  4955  4949  4961  5017  5155  5336  5452  5298  4975  4623  4220  4002  4029
   4356  4793  4829  5193  5364  5220  5060  4995  5247  4948  4642  4768  5082  4685  4718  4824  4630  5866  8731  8873
   6765  4914  5169  5702  6339  6000  5831  5529  8357  6538  5628  6058  4775  6848  5840  4045  3322  4152  -999  -999
   -999  -999  -999  -999  -999  -999  -999  -999  -999  -999  -999  -999  -999  -999  -999  -999  -999  -999  -999  -999
   -999  -999  -999  -999  -999  -999  -999  -999  -999  -999  -999  -999  -999  -999  -999  -999  -999  -999  -999  -999
   -999  -999  -999  -999  -999  -999  -999  -999  -999  -999  -999  -999  -999  -999  -999  -999  -999  -999  -999  -999
   -999  -999  -999  -999  -999  -999  -999  -999  -999  -999  -999  -999  -999  -999  -999  -999  -999  -999  -999  -999
   -999  -999  -999  -999  -999  -999  -999  -999  -999  -999  -999  -999  -999  -999  -999  -999  -999  -999  -999  -999
   -999  -999  -999  -999  -999  -999  -999  -999  -999  -999  -999  -999  -999  -999  -999  -999  -999  -999  -999  -999
   -999  -999  -999  -999  -999  -999  -999  -999  -999  -999  -999  -999  -999  -999  -999  -999  -999  -999  -999  -999
   -999  -999  -999  -999  -999  -999  -999  -999  -999  -999  -999  -999  -999  -999  -999  -999  -999  -999  -999  -999
   -999  -999  -999  -999  -999  -999  -999  -999  -999  -999  -999  -999  -999  -999  -999  -999  -999  -999  -999  -999
   -999  -999  -999  -999  -999  -999  -999  -999  -999  -999  -999  3180  3124  3048  2979  2962  2978  2985  2988  3029
   3104  3205  3328  3465  3616  3792  4000  4230  4471  4726  5086  5575  6295  6957  7446  7772  8066  8346  8659  8875
   9017  8944  8746  8156  7148  6111  5022  4040  3913  3786  3481  4506  6030  5760  5963  5314  4550  4078  3416  2838
   2539  2126  -999  -999  -999  -999  -999  -999  -999  -999  -999  -999  -999  -999  -999  -999  -999  -999  -999  -999
   -999  -999  -999  -999  -999  -999  -999  -999  -999  -999  -999  -999  -999  -999  -999  -999  -999  -999  -999  -999
   -999  -999  -999  -999  -999  -999  -999  -999  -999  -999  -999  -999  -999  -999  -999  -999  -999  -999  -999  -999
   -999  -999  -999  -999  -999  -999  -999  -999  -999  -999  -999  -999  -999  -999  -999  -999  -999  -999  -999  -999
   -999  -999  -999  -999  -999  -999  -999  -999  -999  -999  -999  -999  -999  -999  -999  -999  -999  -999  -999  -999
   -999  -999  -999  -999  -999  -999  -999  -999  -999  -999  -999  -999  -999  -999  -999  -999  -999  -999  -999  -999
   -999  -999  -999  -999  -999  -999  -999  -999  -999  -999  -999  -999  -999  -999  -999  -999  -999  -999  -999  -999
   -999  -999  -999  -999  -999  -999  -999  -999  -999  -999  -999  -999  -999  -999  -999  -999  -999  -999  -999  -999
   -999  -999  -999  -999  -999  -999  -999  -999  -999  -999  -999  -999  -999  -999  -999  -999  -999  -999  -999  -999
   -999  -999  -999  -999  -999  -999  -999  -999  -999  -999  -999  -999  -999  -999  -999  -999  -999  -999  -999  -999
   -999  -999  -999  -999  -999  -999  -999  -999  -999  -999  -999  -999  -999  -999  -999  -999  -999  -999  -999  -999
   -999  -999  -999  -999  -999  -999  -999  -999  -999  -999  -999  -999  -999  -999  -999  -999  -999  -999  -999  -999
   -999  -999  -999  -999  -999  -999  -999  -999  -999  -999  -999  -999  -999  -999  -999  -999  -999  -999  -999  -999
   -999  -999  -999  -999  -999  -999  -999  -999  -999  -999  -999  -999  -999  -999  -999  -999  -999  -999  -999  -999
   -999  -999  -999  -999  -999  -999  -999  -999  -999  -999  -999  -999  -999  -999  -999  -999  -999  -999  -999  -999
   -999  -999  -999  -999  -999  -999  -999  -999  -999  -999  -999  -999  -999  -999  -999  -999  -999  -999  -999  -999
   -999  -999  -999  -999  -999  -999  -999  -999  -999  -999  -999  -999  -999  -999  -999  -999  -999  -999  -999  -999
   -999  -999  -999  -999  -999  -999  -999  -999  -999  -999  -999  -999  -999  -999  -999  -999  -999  -999  -999  -999
   -999  -999  -999  -999  -999  -999  -999  -999  -999  -999  -999  -999  -999  -999  -999  -999  -999  -999  -999  -999
   -999  -999  -999  -999  -999  -999  6510  7061  7391  7421  7522  7593  7489  7299  7002  6595  6152  5549  5178  4603
   4214  4222  4281  4343  4261  4064  3973  3863  3632  3653  4345  5263  6006  6097  6026  5939  5897  5843  5777  5675
   5744  5655  5564  5451  5314  5123  4912  4806  4831  4912  5002  5076  5108  5072  4932  4610  4324  4129  4027  4117
   4520  4978  5505  6360  6724  6626  6362  6220  5873  5214  4999  5276  4979  3231  4027  4789  4864  5934  5913  4364
   3535  3954  4585  6823  -999  -999  -999  -999  -999  3939  3938  3085  3530  6733 10249 11204  8281  -999  -999  -999
   -999  -999  -999  -999  -999  -999  -999  -999  -999  -999  -999  -999  -999  -999  -999  -999  -999  -999  -999  -999
   -999  -999  -999  -999  -999  -999  -999  -999  -999  -999  -999  -999  -999  -999  -999  -999  -999  -999  -999  -999
   -999  -999  -999  -999  -999  -999  -999  -999  -999  -999  -999  -999  -999  -999  -999  -999  -999  -999  -999  -999
   -999  -999  -999  -999  -999  -999  -999  -999  -999  -999  -999  -999  -999  -999  -999  -999  -999  -999  -999  -999
   -999  -999  -999  -999  -999  -999  -999  -999  -999  -999  -999  -999  -999  -999  -999  -999  -999  -999  -999  -999
   -999  -999  -999  -999  -999  -999  -999  -999  -999  -999  -999  -999  -999  -999  -999  -999  -999  -999  -999  -999
   -999  -999  -999  -999  -999  -999  -999  -999  -999  -999  -999  -999  -999  -999  -999  -999  -999  -999  -999  -999
   -999  -999  -999  -999  -999  -999  -999  -999  -999  -999  -999  -999  -999  -999  -999  -999  -999  -999  -999  -999
   -999  -999  -999  -999  -999  -999  -999  -999  -999  -999  -999  -999  -999  -999  -999  -999  -999  -999  -999  -999
   -999  -999  -999  -999  -999  -999  -999  -999  -999  -999  -999  -999  -999  -999  -999  -999  -999  -999  2914  3016
   3106  3312  3599  3961  4397  4840  5248  5644  6119  6743  7423  8033  8561  9019  9375  9724 10020 10101  9821  9105
   7809  6378  4983  4191  4244  5747  5070  4677  7622  7885  7138  5876  5086  4165  3157  3033  2756  3063  -999  -999
   -999  -999  -999  -999  -999  -999  -999  -999  -999  -999  -999  -999  -999  -999  -999  -999  -999  -999  -999  -999
   -999  -999  -999  -999  -999  -999  -999  -999  -999  -999  -999  -999  -999  -999  -999  -999  -999  -999  -999  -999
   -999  -999  -999  -999  -999  -999  -999  -999  -999  -999  -999  -999  -999  -999  -999  -999  -999  -999  -999  -999
   -999  -999  -999  -999  -999  -999  -999  -999  -999  -999  -999  -999  -999  -999  -999  -999  -999  -999  -999  -999
   -999  -999  -999  -999  -999  -999  -999  -999  -999  -999  -999  -999  -999  -999  -999  -999  -999  -999  -999  -999
   -999  -999  -999  -999  -999  -999  -999  -999  -999  -999  -999  -999  -999  -999  -999  -999  -999  -999  -999  -999
   -999  -999  -999  -999  -999  -999  -999  -999  -999  -999  -999  -999  -999  -999  -999  -999  -999  -999  -999  -999
   -999  -999  -999  -999  -999  -999  -999  -999  -999  -999  -999  -999  -999  -999  -999  -999  -999  -999  -999  -999
   -999  -999  -999  -999  -999  -999  -999  -999  -999  -999  -999  -999  -999  -999  -999  -999  -999  -999  -999  -999
   -999  -999  -999  -999  -999  -999  -999  -999  -999  -999  -999  -999  -999  -999  -999  -999  -999  -999  -999  -999
   -999  -999  -999  -999  -999  -999  -999  -999  -999  -999  -999  -999  -999  -999  -999  -999  -999  -999  -999  -999
   -999  -999  -999  -999  -999  -999  -999  -999  -999  -999  -999  -999  -999  -999  -999  -999  -999  -999  -999  -999
   -999  -999  -999  -999  -999  -999  -999  -999  -999  -999  -999  -999  -999  -999  -999  -999  -999  -999  -999  -999
   -999  -999  -999  -999  -999  -999  -999  -999  -999  -999  -999  -999  -999  -999  -999  -999  -999  -999  -999  -999
   -999  -999  -999  -999  -999  -999  -999  -999  -999  -999  -999  -999  -999  -999  -999  -999  -999  -999  -999  -999
   -999  -999  -999  -999  -999  -999  -999  -999  -999  -999  -999  -999  -999  -999  -999  -999  -999  -999  -999  -999
   -999  -999  -999  -999  -999  -999  -999  -999  -999  -999  -999  -999  -999  -999  -999  -999  -999  -999  -999  -999
   -999  -999  -999  -999  -999  -999  -999  -999  -999  -999  -999  -999  -999  -999  -999  -999  -999  -999  -999  -999
   -999  -999  -999  -999  -999  -999  -999  -999  -999  -999  -999  -999  -999  -999  -999  -999  -999  -999  -999  -999
   -999  -999  -999  -999  -999  -999  -999  8244  8812  8817  8115  7636  7644  7974  7470  6725  6033  5601  5428  5072
   4635  4655  4546  4335  4421  4870  5243  5615  6087  6631  6191  5935  5902  5950  5989  6139  6529  6632  6030  5800
   6104  6011  6044  6048  5975  5893  5772  5627  5668  5734  5751  5730  5621  5351  4870  4226  3964  4011  4278  4770
   5402  5956  6476  7401  7953  8090  7801  6905  4780  3476  2925  2894  3866  5072  5927  6141  6427  6287  5997  5156
   4131  3966  3497  -999  -999  -999  -999  -999  -999  -999  -999  -999  -999  -999  -999  -999  -999  -999  -999  -999
   -999  -999  -999  -999  -999  -999  -999  -999  -999  -999  -999  -999  -999  -999  -999  -999  -999  -999  -999  -999
   -999  -999  -999  -999  -999  -999  -999  -999  -999  -999  -999  -999  -999  -999  -999  -999  -999  -999  -999  -999
   -999  -999  -999  -999  -999  -999  -999  -999  -999  -999  -999  -999  -999  -999  -999  -999  -999  -999  -999  -999
   -999  -999  -999  -999  -999  -999  -999  -999  -999  -999  -999  -999  -999  -999  -999  -999  -999  -999  -999  -999
   -999  -999  -999  -999  -999  -999  -999  -999  -999  -999  -999  -999  -999  -999  -999  -999  -999  -999  -999  -999
   -999  -999  -999  -999  -999  -999  -999  -999  -999  -999  -999  -999  -999  -999  -999  -999  -999  -999  -999  -999
   -999  -999  -999  -999  -999  -999  -999  -999  -999  -999  -999  -999  -999  -999  -999  -999  -999  -999  -999  -999
   -999  -999  -999  -999  -999  -999  -999  -999  -999  -999  -999  -999  -999  -999  -999  -999  -999  -999  -999  -999
   -999  -999  -999  -999  -999  -999  -999  -999  -999  -999  -999  -999  -999  -999  -999  -999  -999  -999  -999  -999
   -999  -999  -999  -999  -999  -999  -999  -999  -999  -999  -999  -999  -999  -999  -999  -999  -999  -999  -999  -999
   -999  -999  -999  -999  4407  4856  6030  6760  8317  8940  9679 10378 10731 10846 10908 10733  9780  7469  5313  5570
   6387  6842  8105  9640  9982  9895 10165  9971  7774  5190  3293  3145  -999  -999  -999  -999  -999  -999  -999  -999
   -999  -999  -999  -999  -999  -999  -999  -999  -999  -999  -999  -999  -999  -999  -999  -999  -999  -999  -999  -999
   -999  -999  -999  -999  -999  -999  -999  -999  -999  -999  -999  -999  -999  -999  -999  -999  -999  -999  -999  -999
   -999  -999  -999  -999  -999  -999  -999  -999  -999  -999  -999  -999  -999  -999  -999  -999  -999  -999  -999  -999
   -999  -999  -999  -999  -999  -999  -999  -999  -999  -999  -999  -999  -999  -999  -999  -999  -999  -999  -999  -999
   -999  -999  -999  -999  -999  -999  -999  -999  -999  -999  -999  -999  -999  -999  -999  -999  -999  -999  -999  -999
   -999  -999  -999  -999  -999  -999  -999  -999  -999  -999  -999  -999  -999  -999  -999  -999  -999  -999  -999  -999
   -999  -999  -999  -999  -999  -999  -999  -999  -999  -999  -999  -999  -999  -999  -999  -999  -999  -999  -999  -999
   -999  -999  -999  -999  -999  -999  -999  -999  -999  -999  -999  -999  -999  -999  -999  -999  -999  -999  -999  -999
   -999  -999  -999  -999  -999  -999  -999  -999  -999  -999  -999  -999  -999  -999  -999  -999  -999  -999  -999  -999
   -999  -999  -999  -999  -999  -999  -999  -999  -999  -999  -999  -999  -999  -999  -999  -999  -999  -999  -999  -999
   -999  -999  -999  -999  -999  -999  -999  -999  -999  -999  -999  -999  -999  -999  -999  -999  -999  -999  -999  -999
   -999  -999  -999  -999  -999  -999  -999  -999  -999  -999  -999  -999  -999  -999  -999  -999  -999  -999  -999  -999
   -999  -999  -999  -999  -999  -999  -999  -999  -999  -999  -999  -999  -999  -999  -999  -999  -999  -999  -999  -999
   -999  -999  -999  -999  -999  -999  -999  -999  -999  -999  -999  -999  -999  -999  -999  -999  -999  -999  -999  -999
   -999  -999  -999  -999  -999  -999  -999  -999  -999  -999  -999  -999  -999  -999  -999  -999  -999  -999  -999  -999
   -999  -999  -999  -999  -999  -999  -999  -999  -999  -999  -999  -999  -999  -999  -999  -999  -999  -999  -999  -999
   -999  -999  -999  -999  -999  -999  -999  -999  -999  -999  -999  -999  -999  -999  -999  -999  -999  -999  -999  -999
   -999  -999  -999  -999  -999  -999  -999  -999  -999  -999  -999  -999  -999  -999  -999  -999  -999  -999  -999  -999
   -999  -999  -999  -999  -999  -999  -999  -999  -999  -999  -999  -999  -999  -999  -999  -999  -999  -999  -999  -999
   -999  -999  -999  -999  -999  -999  -999  -999  3476  3251  3734  6383  6259  -999  -999  -999  -999  -999  -999  -999
   -999  -999  -999  -999  -999  -999  -999  -999  -999  7362  6827  6211  5982  5932  5953  6026  6092  6065  5953  6166
   -999  -999  -999  -999  -999  -999  -999  -999  -999  -999  -999  -999  -999  -999  -999  -999  -999  -999  -999  -999
   -999  -999  -999  -999  -999  -999  -999  -999  -999  -999  -999  -999  -999  -999  -999  -999  -999  -999  -999  -999
   -999  -999  -999  -999  -999  -999  -999  -999  -999  -999  -999  -999  -999  -999  -999  -999  -999  -999  -999  -999
   -999  -999  -999  -999  -999  -999  -999  -999  -999  -999  -999  -999  -999  -999  -999  -999  -999  -999  -999  -999
   -999  -999  -999  -999  -999  -999  -999  -999  -999  -999  -999  -999  -999  -999  -999  -999  -999  -999  -999  -999
   -999  -999  -999  -999  -999  -999  -999  -999  -999  -999  -999  -999  -999  -999  -999  -999  -999  -999  -999  -999
   -999  -999  -999  -999  -999  -999  -999  -999  -999  -999  -999  -999  -999  -999  -999  -999  -999  -999  -999  -999
   -999  -999  -999  -999  -999  -999  -999  -999  -999  -999  -999  -999  -999  -999  -999  -999  -999  -999  -999  -999
   -999  -999  -999  -999  -999  -999  -999  -999  -999  -999  -999  -999  -999  -999  -999  -999  -999  -999  -999  -999
   -999  -999  -999  -999  -999  -999  -999  -999  -999  -999  -999  -999  -999  -999  -999  -999  -999  -999  -999  -999
   -999  -999  -999  -999  -999  -999  -999  -999  -999  -999  -999  -999  -999  -999  -999  -999  -999  -999  -999  -999
   -999  -999  -999  -999  -999  -999  -999  -999  -999  -999  -999  -999  -999  -999  -999  -999  -999  -999  -999  -999
   -999  -999  -999  -999  -999  -999  -999  -999  -999  -999  -999  -999  -999  -999  -999  -999  -999  -999  -999  -999
   -999  -999  -999  -999  -999  -999  -999  -999  -999  -999  -999  -999  -999  -999  -999  -999  -999  -999  -999  -999
   -999  -999  -999  -999  -999  -999  -999  -999  -999  -999  -999  -999  -999  -999  -999  -999  -999  -999  -999  -999
   -999  -999  -999  -999  -999  -999  -999  -999  -999  -999  -999  -999  -999  -999  -999  -999  -999  -999  -999  -999
   -999  -999  -999  -999  -999  -999  -999  -999  -999  -999  -999  -999  -999  -999  -999  -999  -999  -999  -999  -999
   -999  -999  -999  -999  -999  -999  -999  -999  -999  -999  -999  -999  -999  -999  -999  -999  -999  -999  -999  -999
   -999  -999  -999  -999  -999  -999  -999  -999  -999  -999  -999  -999  -999  -999  -999  -999  -999  -999  -999  -999
   -999  -999  -999  -999  -999  -999  -999  -999  -999  -999  -999  -999  -999  -999  -999  -999  -999  -999  -999  -999
   -999  -999  -999  -999  -999  -999  -999  -999  -999  -999  -999  -999  -999  -999  -999  -999  -999  -999  -999  -999
   -999  -999  -999  -999  -999  -999  -999  -999  -999  -999  -999  -999  -999  -999  -999  -999  -999  -999  -999  -999
   -999  -999  -999  -999  -999  -999  -999  -999  -999  -999  -999  -999  -999  -999  -999  -999  -999  -999  -999  -999
   -999  -999  -999  -999  -999  -999  -999  -999  -999  -999  -999  -999  -999  -999  -999  -999  -999  -999  -999  -999
   -999  -999  -999  -999  -999  -999  -999  -999  -999  -999  -999  -999  -999  -999  -999  -999  -999  -999  -999  -999
   -999  -999  -999  -999  -999  -999  -999  -999  -999  -999  -999  -999  -999  -999  -999  -999  -999  -999  -999  -999
   -999  -999  -999  -999  -999  -999  -999  -999  -999  -999  -999  -999  -999  -999  -999  -999  -999  -999  -999  -999
   -999  -999  -999  -999  -999  -999  -999  -999  -999  -999  -999  -999  -999  -999  -999  -999  -999  -999  -999  -999
   -999  -999  -999  -999  -999  -999  -999  -999  -999  -999  -999  -999  -999  -999  -999  -999  -999  -999  -999  -999
   -999  -999  -999  -999  -999  -999  -999  -999  -999  -999  -999  -999  -999  -999  -999  -999  -999  -999  -999  -999
   -999  -999  -999  -999  -999  -999  -999  -999  -999  -999  -999  -999  -999  -999  -999  -999  -999  -999  -999  -999
   -999  -999  -999  -999  -999  -999  -999  -999  -999  -999  -999  -999  -999  -999  -999  -999  -999  -999  -999  -999
   -999  -999  -999  -999  -999  -999  -999  -999  -999  -999  -999  -999  -999  -999  -999  -999  -999  -999  -999  -999
   -999  -999  -999  -999  -999  -999  -999  -999  -999  -999  -999  -999  -999  -999  -999  -999  -999  -999  -999  -999
   -999  -999  -999  -999  -999  -999  -999  -999  -999  -999  -999  -999  -999  -999  -999  -999  -999  -999  -999  -999
   -999  -999  -999  -999  -999  -999  -999  -999  -999  -999  -999  -999  -999  -999  -999  -999  -999  -999  -999  -999
